Material: main / C / Djurisic-e
Optical constants. A. B. Djurišić and E. H. Li. Optical properties of graphite, J. Appl. Phys. 85, 7404-7410 (1999)[Calculation script (Python)]
Comments: Graphite. Extraordinary ray (e). Critical analysis and fit of the experimental data from several sources to a modified Lorentz-Drude (LD) model.
Specs: {"n_is_absolute": true, "λ_is_vacuum": true}
wavelength (um)	n	k
3.0996e-02	8.8474e-01	3.0199e-01
3.1084e-02	8.8615e-01	2.9809e-01
3.1173e-02	8.8723e-01	2.9426e-01
3.1263e-02	8.8798e-01	2.9054e-01
3.1353e-02	8.8842e-01	2.8696e-01
3.1443e-02	8.8856e-01	2.8352e-01
3.1534e-02	8.8842e-01	2.8027e-01
3.1626e-02	8.8803e-01	2.7722e-01
3.1718e-02	8.8739e-01	2.7439e-01
3.1811e-02	8.8654e-01	2.7179e-01
3.1904e-02	8.8550e-01	2.6943e-01
3.1998e-02	8.8428e-01	2.6734e-01
3.2092e-02	8.8292e-01	2.6550e-01
3.2187e-02	8.8143e-01	2.6394e-01
3.2282e-02	8.7984e-01	2.6265e-01
3.2378e-02	8.7817e-01	2.6163e-01
3.2474e-02	8.7645e-01	2.6089e-01
3.2572e-02	8.7469e-01	2.6041e-01
3.2669e-02	8.7291e-01	2.6019e-01
3.2768e-02	8.7113e-01	2.6023e-01
3.2866e-02	8.6937e-01	2.6052e-01
3.2966e-02	8.6765e-01	2.6106e-01
3.3066e-02	8.6598e-01	2.6182e-01
3.3167e-02	8.6437e-01	2.6280e-01
3.3268e-02	8.6283e-01	2.6400e-01
3.3370e-02	8.6139e-01	2.6540e-01
3.3472e-02	8.6004e-01	2.6698e-01
3.3575e-02	8.5879e-01	2.6874e-01
3.3679e-02	8.5766e-01	2.7066e-01
3.3784e-02	8.5665e-01	2.7274e-01
3.3889e-02	8.5576e-01	2.7496e-01
3.3995e-02	8.5501e-01	2.7730e-01
3.4101e-02	8.5439e-01	2.7976e-01
3.4208e-02	8.5390e-01	2.8233e-01
3.4316e-02	8.5356e-01	2.8499e-01
3.4424e-02	8.5336e-01	2.8773e-01
3.4533e-02	8.5329e-01	2.9054e-01
3.4643e-02	8.5337e-01	2.9342e-01
3.4754e-02	8.5359e-01	2.9635e-01
3.4865e-02	8.5396e-01	2.9932e-01
3.4977e-02	8.5446e-01	3.0232e-01
3.5090e-02	8.5510e-01	3.0535e-01
3.5203e-02	8.5588e-01	3.0839e-01
3.5317e-02	8.5679e-01	3.1145e-01
3.5432e-02	8.5783e-01	3.1450e-01
3.5548e-02	8.5900e-01	3.1755e-01
3.5664e-02	8.6029e-01	3.2058e-01
3.5781e-02	8.6171e-01	3.2360e-01
3.5899e-02	8.6325e-01	3.2659e-01
3.6018e-02	8.6491e-01	3.2955e-01
3.6137e-02	8.6667e-01	3.3248e-01
3.6257e-02	8.6855e-01	3.3536e-01
3.6379e-02	8.7053e-01	3.3820e-01
3.6500e-02	8.7262e-01	3.4099e-01
3.6623e-02	8.7480e-01	3.4373e-01
3.6747e-02	8.7708e-01	3.4641e-01
3.6871e-02	8.7945e-01	3.4903e-01
3.6996e-02	8.8190e-01	3.5159e-01
3.7122e-02	8.8444e-01	3.5408e-01
3.7249e-02	8.8707e-01	3.5649e-01
3.7377e-02	8.8976e-01	3.5884e-01
3.7506e-02	8.9254e-01	3.6111e-01
3.7635e-02	8.9538e-01	3.6331e-01
3.7766e-02	8.9829e-01	3.6543e-01
3.7897e-02	9.0127e-01	3.6746e-01
3.8030e-02	9.0430e-01	3.6941e-01
3.8163e-02	9.0740e-01	3.7128e-01
3.8297e-02	9.1054e-01	3.7306e-01
3.8432e-02	9.1374e-01	3.7475e-01
3.8568e-02	9.1699e-01	3.7636e-01
3.8705e-02	9.2028e-01	3.7787e-01
3.8843e-02	9.2361e-01	3.7929e-01
3.8982e-02	9.2698e-01	3.8061e-01
3.9122e-02	9.3039e-01	3.8184e-01
3.9263e-02	9.3382e-01	3.8298e-01
3.9405e-02	9.3729e-01	3.8401e-01
3.9548e-02	9.4078e-01	3.8495e-01
3.9692e-02	9.4430e-01	3.8579e-01
3.9837e-02	9.4783e-01	3.8653e-01
3.9984e-02	9.5138e-01	3.8717e-01
4.0131e-02	9.5495e-01	3.8771e-01
4.0279e-02	9.5852e-01	3.8814e-01
4.0429e-02	9.6210e-01	3.8847e-01
4.0579e-02	9.6568e-01	3.8869e-01
4.0731e-02	9.6926e-01	3.8882e-01
4.0884e-02	9.7283e-01	3.8883e-01
4.1038e-02	9.7640e-01	3.8874e-01
4.1193e-02	9.7995e-01	3.8855e-01
4.1350e-02	9.8349e-01	3.8825e-01
4.1507e-02	9.8700e-01	3.8784e-01
4.1666e-02	9.9049e-01	3.8733e-01
4.1826e-02	9.9396e-01	3.8671e-01
4.1987e-02	9.9739e-01	3.8599e-01
4.2150e-02	1.0008e+00	3.8516e-01
4.2313e-02	1.0041e+00	3.8423e-01
4.2478e-02	1.0074e+00	3.8320e-01
4.2645e-02	1.0107e+00	3.8206e-01
4.2812e-02	1.0139e+00	3.8082e-01
4.2981e-02	1.0170e+00	3.7948e-01
4.3151e-02	1.0201e+00	3.7805e-01
4.3323e-02	1.0231e+00	3.7651e-01
4.3496e-02	1.0261e+00	3.7489e-01
4.3670e-02	1.0289e+00	3.7317e-01
4.3846e-02	1.0317e+00	3.7136e-01
4.4023e-02	1.0344e+00	3.6946e-01
4.4202e-02	1.0370e+00	3.6748e-01
4.4382e-02	1.0395e+00	3.6542e-01
4.4563e-02	1.0419e+00	3.6328e-01
4.4747e-02	1.0442e+00	3.6107e-01
4.4931e-02	1.0464e+00	3.5879e-01
4.5117e-02	1.0485e+00	3.5644e-01
4.5305e-02	1.0504e+00	3.5403e-01
4.5494e-02	1.0523e+00	3.5156e-01
4.5685e-02	1.0540e+00	3.4905e-01
4.5877e-02	1.0556e+00	3.4648e-01
4.6071e-02	1.0570e+00	3.4387e-01
4.6267e-02	1.0584e+00	3.4123e-01
4.6464e-02	1.0595e+00	3.3855e-01
4.6663e-02	1.0606e+00	3.3585e-01
4.6864e-02	1.0615e+00	3.3314e-01
4.7067e-02	1.0622e+00	3.3041e-01
4.7271e-02	1.0628e+00	3.2767e-01
4.7477e-02	1.0633e+00	3.2494e-01
4.7685e-02	1.0636e+00	3.2221e-01
4.7894e-02	1.0637e+00	3.1949e-01
4.8106e-02	1.0637e+00	3.1680e-01
4.8319e-02	1.0636e+00	3.1414e-01
4.8534e-02	1.0632e+00	3.1151e-01
4.8752e-02	1.0628e+00	3.0893e-01
4.8971e-02	1.0621e+00	3.0639e-01
4.9192e-02	1.0613e+00	3.0391e-01
4.9415e-02	1.0604e+00	3.0150e-01
4.9640e-02	1.0593e+00	2.9916e-01
4.9867e-02	1.0580e+00	2.9690e-01
5.0097e-02	1.0566e+00	2.9473e-01
5.0328e-02	1.0551e+00	2.9265e-01
5.0562e-02	1.0534e+00	2.9068e-01
5.0798e-02	1.0515e+00	2.8882e-01
5.1036e-02	1.0495e+00	2.8708e-01
5.1276e-02	1.0474e+00	2.8547e-01
5.1518e-02	1.0451e+00	2.8399e-01
5.1763e-02	1.0427e+00	2.8266e-01
5.2010e-02	1.0401e+00	2.8148e-01
5.2260e-02	1.0374e+00	2.8046e-01
5.2512e-02	1.0346e+00	2.7961e-01
5.2766e-02	1.0317e+00	2.7893e-01
5.3023e-02	1.0286e+00	2.7844e-01
5.3282e-02	1.0255e+00	2.7815e-01
5.3544e-02	1.0222e+00	2.7806e-01
5.3809e-02	1.0189e+00	2.7818e-01
5.4076e-02	1.0154e+00	2.7852e-01
5.4345e-02	1.0119e+00	2.7909e-01
5.4618e-02	1.0083e+00	2.7990e-01
5.4893e-02	1.0046e+00	2.8096e-01
5.5171e-02	1.0009e+00	2.8228e-01
5.5452e-02	9.9711e-01	2.8386e-01
5.5736e-02	9.9329e-01	2.8572e-01
5.6022e-02	9.8945e-01	2.8787e-01
5.6312e-02	9.8560e-01	2.9031e-01
5.6604e-02	9.8175e-01	2.9305e-01
5.6900e-02	9.7792e-01	2.9610e-01
5.7199e-02	9.7412e-01	2.9947e-01
5.7501e-02	9.7038e-01	3.0316e-01
5.7806e-02	9.6670e-01	3.0719e-01
5.8114e-02	9.6312e-01	3.1156e-01
5.8426e-02	9.5964e-01	3.1626e-01
5.8741e-02	9.5630e-01	3.2132e-01
5.9060e-02	9.5312e-01	3.2671e-01
5.9381e-02	9.5011e-01	3.3246e-01
5.9707e-02	9.4732e-01	3.3855e-01
6.0036e-02	9.4477e-01	3.4498e-01
6.0369e-02	9.4248e-01	3.5174e-01
6.0705e-02	9.4048e-01	3.5883e-01
6.1045e-02	9.3881e-01	3.6623e-01
6.1389e-02	9.3748e-01	3.7392e-01
6.1737e-02	9.3653e-01	3.8188e-01
6.2089e-02	9.3599e-01	3.9010e-01
6.2445e-02	9.3587e-01	3.9854e-01
6.2805e-02	9.3621e-01	4.0718e-01
6.3169e-02	9.3702e-01	4.1598e-01
6.3538e-02	9.3831e-01	4.2491e-01
6.3910e-02	9.4011e-01	4.3393e-01
6.4288e-02	9.4241e-01	4.4300e-01
6.4669e-02	9.4523e-01	4.5207e-01
6.5055e-02	9.4855e-01	4.6111e-01
6.5446e-02	9.5238e-01	4.7006e-01
6.5842e-02	9.5669e-01	4.7890e-01
6.6242e-02	9.6146e-01	4.8757e-01
6.6647e-02	9.6668e-01	4.9605e-01
6.7058e-02	9.7230e-01	5.0430e-01
6.7473e-02	9.7828e-01	5.1229e-01
6.7894e-02	9.8459e-01	5.2001e-01
6.8319e-02	9.9117e-01	5.2744e-01
6.8750e-02	9.9797e-01	5.3458e-01
6.9187e-02	1.0050e+00	5.4145e-01
6.9629e-02	1.0121e+00	5.4805e-01
7.0077e-02	1.0192e+00	5.5444e-01
7.0531e-02	1.0264e+00	5.6065e-01
7.0991e-02	1.0336e+00	5.6675e-01
7.1456e-02	1.0408e+00	5.7280e-01
7.1928e-02	1.0480e+00	5.7891e-01
7.2406e-02	1.0551e+00	5.8517e-01
7.2891e-02	1.0623e+00	5.9169e-01
7.3382e-02	1.0696e+00	5.9858e-01
7.3879e-02	1.0770e+00	6.0595e-01
7.4384e-02	1.0849e+00	6.1392e-01
7.4895e-02	1.0933e+00	6.2256e-01
7.5414e-02	1.1024e+00	6.3194e-01
7.5939e-02	1.1127e+00	6.4205e-01
7.6472e-02	1.1244e+00	6.5283e-01
7.7013e-02	1.1380e+00	6.6412e-01
7.7561e-02	1.1537e+00	6.7564e-01
7.8118e-02	1.1720e+00	6.8695e-01
7.8682e-02	1.1931e+00	6.9748e-01
7.9254e-02	1.2172e+00	7.0648e-01
7.9835e-02	1.2443e+00	7.1310e-01
8.0425e-02	1.2741e+00	7.1642e-01
8.1023e-02	1.3058e+00	7.1556e-01
8.1630e-02	1.3385e+00	7.0982e-01
8.2246e-02	1.3710e+00	6.9882e-01
8.2872e-02	1.4019e+00	6.8258e-01
8.3507e-02	1.4300e+00	6.6156e-01
8.4152e-02	1.4542e+00	6.3662e-01
8.4807e-02	1.4737e+00	6.0886e-01
8.5473e-02	1.4882e+00	5.7951e-01
8.6149e-02	1.4978e+00	5.4972e-01
8.6835e-02	1.5028e+00	5.2048e-01
8.7533e-02	1.5037e+00	4.9257e-01
8.8242e-02	1.5011e+00	4.6653e-01
8.8963e-02	1.4956e+00	4.4270e-01
8.9695e-02	1.4878e+00	4.2129e-01
9.0440e-02	1.4781e+00	4.0238e-01
9.1197e-02	1.4669e+00	3.8599e-01
9.1967e-02	1.4547e+00	3.7208e-01
9.2750e-02	1.4417e+00	3.6064e-01
9.3546e-02	1.4281e+00	3.5161e-01
9.4357e-02	1.4142e+00	3.4498e-01
9.5181e-02	1.4002e+00	3.4074e-01
9.6020e-02	1.3863e+00	3.3891e-01
9.6874e-02	1.3727e+00	3.3952e-01
9.7743e-02	1.3597e+00	3.4260e-01
9.8628e-02	1.3476e+00	3.4819e-01
9.9529e-02	1.3368e+00	3.5628e-01
1.0045e-01	1.3277e+00	3.6681e-01
1.0138e-01	1.3208e+00	3.7961e-01
1.0233e-01	1.3168e+00	3.9434e-01
1.0330e-01	1.3160e+00	4.1049e-01
1.0429e-01	1.3188e+00	4.2731e-01
1.0530e-01	1.3255e+00	4.4390e-01
1.0633e-01	1.3359e+00	4.5928e-01
1.0738e-01	1.3493e+00	4.7257e-01
1.0845e-01	1.3648e+00	4.8320e-01
1.0954e-01	1.3816e+00	4.9102e-01
1.1065e-01	1.3986e+00	4.9635e-01
1.1179e-01	1.4153e+00	4.9986e-01
1.1294e-01	1.4315e+00	5.0228e-01
1.1413e-01	1.4477e+00	5.0424e-01
1.1534e-01	1.4642e+00	5.0605e-01
1.1657e-01	1.4817e+00	5.0765e-01
1.1783e-01	1.5008e+00	5.0866e-01
1.1912e-01	1.5217e+00	5.0840e-01
1.2044e-01	1.5444e+00	5.0611e-01
1.2178e-01	1.5685e+00	5.0103e-01
1.2316e-01	1.5935e+00	4.9255e-01
1.2457e-01	1.6184e+00	4.8032e-01
1.2601e-01	1.6422e+00	4.6430e-01
1.2748e-01	1.6641e+00	4.4476e-01
1.2899e-01	1.6833e+00	4.2227e-01
1.3054e-01	1.6992e+00	3.9754e-01
1.3212e-01	1.7116e+00	3.7142e-01
1.3374e-01	1.7203e+00	3.4471e-01
1.3541e-01	1.7256e+00	3.1812e-01
1.3711e-01	1.7278e+00	2.9226e-01
1.3886e-01	1.7273e+00	2.6756e-01
1.4065e-01	1.7246e+00	2.4433e-01
1.4249e-01	1.7199e+00	2.2274e-01
1.4438e-01	1.7139e+00	2.0285e-01
1.4632e-01	1.7067e+00	1.8468e-01
1.4831e-01	1.6988e+00	1.6817e-01
1.5036e-01	1.6903e+00	1.5323e-01
1.5246e-01	1.6815e+00	1.3975e-01
1.5463e-01	1.6725e+00	1.2762e-01
1.5685e-01	1.6634e+00	1.1671e-01
1.5914e-01	1.6544e+00	1.0692e-01
1.6150e-01	1.6455e+00	9.8118e-02
1.6393e-01	1.6367e+00	9.0218e-02
1.6644e-01	1.6282e+00	8.3120e-02
1.6902e-01	1.6199e+00	7.6739e-02
1.7168e-01	1.6118e+00	7.0998e-02
1.7443e-01	1.6040e+00	6.5826e-02
1.7727e-01	1.5964e+00	6.1163e-02
1.8020e-01	1.5890e+00	5.6952e-02
1.8324e-01	1.5819e+00	5.3144e-02
1.8637e-01	1.5750e+00	4.9696e-02
1.8961e-01	1.5682e+00	4.6569e-02
1.9297e-01	1.5617e+00	4.3729e-02
1.9645e-01	1.5553e+00	4.1144e-02
2.0006e-01	1.5490e+00	3.8788e-02
2.0380e-01	1.5428e+00	3.6638e-02
2.0769e-01	1.5367e+00	3.4674e-02
2.1173e-01	1.5306e+00	3.2879e-02
2.1592e-01	1.5245e+00	3.1248e-02
2.2029e-01	1.5184e+00	2.9793e-02
2.2484e-01	1.5121e+00	2.8563e-02
2.2957e-01	1.5055e+00	2.7690e-02
2.3452e-01	1.4987e+00	2.7473e-02
2.3968e-01	1.4916e+00	2.8524e-02
2.4507e-01	1.4847e+00	3.1890e-02
2.5071e-01	1.4798e+00	3.8642e-02
2.5661e-01	1.4804e+00	4.7575e-02
2.6281e-01	1.4872e+00	5.3398e-02
2.6930e-01	1.4950e+00	5.3031e-02
2.7613e-01	1.4997e+00	4.9359e-02
2.8331e-01	1.5013e+00	4.5562e-02
2.9087e-01	1.5014e+00	4.2867e-02
2.9885e-01	1.5007e+00	4.1538e-02
3.0728e-01	1.5001e+00	4.1624e-02
3.1620e-01	1.5001e+00	4.3206e-02
3.2566e-01	1.5017e+00	4.6322e-02
3.3569e-01	1.5063e+00	5.0460e-02
3.4637e-01	1.5156e+00	5.3221e-02
3.5774e-01	1.5281e+00	4.9792e-02
3.6989e-01	1.5368e+00	3.8875e-02
3.8289e-01	1.5374e+00	2.6903e-02
3.9684e-01	1.5334e+00	1.8688e-02
4.1184e-01	1.5282e+00	1.4084e-02
4.2802e-01	1.5232e+00	1.1640e-02
4.4552e-01	1.5188e+00	1.0298e-02
4.6452e-01	1.5150e+00	9.4774e-03
4.8521e-01	1.5116e+00	8.8909e-03
5.0783e-01	1.5085e+00	8.4057e-03
5.3266e-01	1.5058e+00	7.9635e-03
5.6005e-01	1.5034e+00	7.5402e-03
5.9040e-01	1.5012e+00	7.1261e-03
