Material: organic / C3H8O3 - glycerol / Wang
Optical constants. K. Wang, W. Wen, Y. Wang, K. Wang, J. He, J. Wang, P. Zhai, Y. Yang, P. Qiu. Order-of-magnitude multiphoton signal enhancement based on characterization of absorption spectra of immersion oils at the 1700-nm window, Opt. Express 25, 5909-5916 (2017)
Comments: 22 °C.
Specs: {"temperature": "22 °C"}
wavelength (um)	k
1.200	9.39393E-06
1.202	1.05263E-05
1.204	9.92241E-06
1.206	9.82478E-06
1.208	1.05477E-05
1.210	9.61799E-06
1.212	9.15426E-06
1.214	9.56622E-06
1.216	9.80164E-06
1.218	1.01741E-05
1.220	9.07828E-06
1.222	8.99854E-06
1.224	7.88661E-06
1.226	8.19482E-06
1.228	7.53205E-06
1.230	7.16337E-06
1.232	8.02296E-06
1.234	7.71753E-06
1.236	8.36798E-06
1.238	7.24198E-06
1.240	6.50700E-06
1.242	6.02598E-06
1.244	6.61352E-06
1.246	6.55990E-06
1.248	6.90322E-06
1.250	5.98950E-06
1.252	5.96680E-06
1.254	5.58795E-06
1.256	6.54768E-06
1.258	7.17497E-06
1.260	4.87762E-06
1.262	6.05784E-06
1.264	6.74167E-06
1.266	6.88300E-06
1.268	6.06485E-06
1.270	6.05259E-06
1.272	5.82141E-06
1.274	6.02775E-06
1.276	5.66405E-06
1.278	5.09019E-06
1.280	5.49459E-06
1.282	5.83402E-06
1.284	5.04787E-06
1.286	4.64639E-06
1.288	5.51786E-06
1.290	3.62885E-06
1.292	4.33464E-06
1.294	4.56398E-06
1.296	3.72370E-06
1.298	4.68975E-06
1.300	5.43509E-06
1.302	2.95692E-06
1.304	3.16340E-06
1.306	2.47172E-06
1.308	3.94949E-06
1.310	3.39208E-06
1.312	3.78095E-06
1.314	3.15378E-06
1.316	3.47547E-06
1.318	3.65088E-06
1.320	4.73520E-06
1.322	4.15093E-06
1.324	4.81782E-06
1.326	4.74533E-06
1.328	5.25509E-06
1.330	4.63380E-06
1.332	4.34281E-06
1.334	5.03786E-06
1.336	4.90752E-06
1.338	4.70767E-06
1.340	5.84439E-06
1.342	5.85311E-06
1.344	6.23178E-06
1.346	6.36841E-06
1.348	7.98982E-06
1.350	8.50101E-06
1.352	8.87413E-06
1.354	9.12021E-06
1.356	9.65865E-06
1.358	1.08996E-05
1.360	1.07167E-05
1.362	1.15292E-05
1.364	1.23206E-05
1.366	1.30437E-05
1.368	1.29451E-05
1.370	1.32233E-05
1.372	1.44937E-05
1.374	1.54840E-05
1.376	1.57433E-05
1.378	1.66197E-05
1.380	1.69881E-05
1.382	1.69890E-05
1.384	1.66325E-05
1.386	1.64897E-05
1.388	1.76836E-05
1.390	1.69079E-05
1.392	1.71358E-05
1.394	1.68967E-05
1.396	1.76894E-05
1.398	1.76186E-05
1.400	1.91975E-05
1.402	2.08772E-05
1.404	2.19940E-05
1.406	2.37548E-05
1.408	2.48788E-05
1.410	2.77282E-05
1.412	2.97353E-05
1.414	3.36577E-05
1.416	3.77860E-05
1.418	4.13282E-05
1.420	4.47824E-05
1.422	4.94450E-05
1.424	5.42798E-05
1.426	5.84041E-05
1.428	6.26505E-05
1.430	6.68469E-05
1.432	7.14123E-05
1.434	7.52991E-05
1.436	7.87889E-05
1.438	8.17439E-05
1.440	8.51898E-05
1.442	8.83101E-05
1.444	9.19604E-05
1.446	9.40159E-05
1.448	9.58276E-05
1.450	9.81677E-05
1.452	1.01663E-04
1.454	1.03267E-04
1.456	1.04849E-04
1.458	1.06862E-04
1.460	1.08830E-04
1.462	1.10375E-04
1.464	1.13007E-04
1.466	1.14309E-04
1.468	1.17028E-04
1.470	1.18301E-04
1.472	1.19829E-04
1.474	1.21247E-04
1.476	1.21653E-04
1.478	1.22695E-04
1.480	1.23141E-04
1.482	1.24302E-04
1.484	1.26589E-04
1.486	1.26543E-04
1.488	1.27839E-04
1.490	1.28562E-04
1.492	1.28375E-04
1.494	1.28843E-04
1.496	1.29363E-04
1.498	1.28724E-04
1.500	1.29025E-04
1.502	1.30709E-04
1.504	1.31206E-04
1.506	1.31355E-04
1.508	1.31101E-04
1.510	1.30911E-04
1.512	1.30552E-04
1.514	1.31128E-04
1.516	1.32214E-04
1.518	1.31579E-04
1.520	1.31595E-04
1.522	1.31179E-04
1.524	1.32164E-04
1.526	1.33638E-04
1.528	1.33077E-04
1.530	1.31843E-04
1.532	1.32687E-04
1.534	1.33441E-04
1.536	1.32267E-04
1.538	1.33564E-04
1.540	1.34440E-04
1.542	1.34946E-04
1.544	1.35997E-04
1.546	1.37118E-04
1.548	1.38267E-04
1.550	1.39033E-04
1.552	1.40854E-04
1.554	1.42466E-04
1.556	1.43038E-04
1.558	1.43798E-04
1.560	1.45325E-04
1.562	1.47164E-04
1.564	1.48375E-04
1.566	1.49251E-04
1.568	1.49806E-04
1.570	1.51375E-04
1.572	1.53515E-04
1.574	1.54604E-04
1.576	1.55587E-04
1.578	1.55988E-04
1.580	1.56213E-04
1.582	1.56547E-04
1.584	1.56336E-04
1.586	1.55087E-04
1.588	1.54722E-04
1.590	1.54042E-04
1.592	1.52825E-04
1.594	1.52222E-04
1.596	1.51369E-04
1.598	1.49194E-04
1.600	1.48376E-04
1.602	1.47349E-04
1.604	1.43104E-04
1.606	1.40934E-04
1.608	1.40058E-04
1.610	1.37268E-04
1.612	1.35567E-04
1.614	1.34263E-04
1.616	1.31232E-04
1.618	1.27775E-04
1.620	1.26150E-04
1.622	1.23975E-04
1.624	1.21166E-04
1.626	1.19945E-04
1.628	1.17711E-04
1.630	1.14883E-04
1.632	1.12581E-04
1.634	1.09444E-04
1.636	1.07650E-04
1.638	1.05175E-04
1.640	1.03455E-04
1.642	1.02183E-04
1.644	1.01105E-04
1.646	9.99396E-05
1.648	9.79061E-05
1.650	9.59384E-05
1.652	9.49036E-05
1.654	9.34392E-05
1.656	9.12585E-05
1.658	9.03988E-05
1.660	9.03794E-05
1.662	8.82579E-05
1.664	8.60309E-05
1.666	8.60482E-05
1.668	8.54628E-05
1.670	8.43873E-05
1.672	8.36252E-05
1.674	8.31205E-05
1.676	8.25710E-05
1.678	8.26406E-05
1.680	8.20744E-05
1.682	8.31414E-05
1.684	8.40082E-05
1.686	8.80675E-05
1.688	9.05825E-05
1.690	9.13441E-05
1.692	9.42031E-05
1.694	9.77390E-05
1.696	1.00145E-04
1.698	1.04149E-04
1.700	1.04520E-04
1.702	1.07234E-04
1.704	1.09999E-04
1.706	1.10187E-04
1.708	1.12829E-04
1.710	1.13770E-04
1.712	1.12371E-04
1.714	1.11161E-04
1.716	1.10818E-04
1.718	1.10918E-04
1.720	1.08280E-04
1.722	1.07013E-04
1.724	1.07968E-04
1.726	1.05955E-04
1.728	1.06331E-04
1.730	1.06037E-04
1.732	1.07173E-04
1.734	1.04820E-04
1.736	1.03239E-04
1.738	1.05825E-04
1.740	1.05887E-04
1.742	1.05858E-04
1.744	1.04945E-04
1.746	1.04104E-04
1.748	1.03441E-04
1.750	1.02761E-04
1.752	1.02155E-04
1.754	1.02936E-04
1.756	1.02283E-04
1.758	1.01946E-04
1.760	9.97453E-05
1.762	9.93130E-05
1.764	9.96685E-05
1.766	9.96448E-05
1.768	9.83431E-05
1.770	9.82869E-05
1.772	9.76967E-05
1.774	9.71508E-05
1.776	9.57326E-05
1.778	9.46321E-05
1.780	9.33450E-05
1.782	9.14877E-05
1.784	9.17900E-05
1.786	9.09402E-05
1.788	9.01038E-05
1.790	8.80796E-05
1.792	8.71760E-05
1.794	8.56219E-05
1.796	8.43115E-05
1.798	8.48539E-05
1.800	8.17894E-05
1.802	8.18027E-05
1.804	8.04503E-05
1.806	7.93898E-05
1.808	7.75958E-05
1.810	7.52993E-05
1.812	7.38393E-05
1.814	7.35151E-05
1.816	7.10654E-05
1.818	7.13626E-05
1.820	7.16760E-05
1.822	7.07359E-05
1.824	6.78950E-05
1.826	6.71527E-05
1.828	6.74306E-05
1.830	6.54263E-05
1.832	6.76097E-05
1.834	6.50172E-05
1.836	6.40930E-05
1.838	6.37201E-05
1.840	6.28555E-05
1.842	6.35737E-05
1.844	6.36427E-05
1.846	6.08373E-05
1.848	6.11098E-05
1.850	5.86297E-05
1.852	5.98721E-05
1.854	5.91232E-05
1.856	5.74308E-05
1.858	5.72209E-05
1.860	5.49784E-05
1.862	5.41246E-05
1.864	5.50005E-05
1.866	5.30369E-05
1.868	5.41704E-05
1.870	5.29576E-05
1.872	5.23540E-05
1.874	5.18295E-05
1.876	5.20139E-05
1.878	5.14393E-05
1.880	5.13324E-05
1.882	5.21803E-05
1.884	5.18143E-05
1.886	5.13988E-05
1.888	5.13234E-05
1.890	5.13128E-05
1.892	5.00161E-05
1.894	4.96943E-05
1.896	5.04808E-05
1.898	5.07788E-05
1.900	5.15516E-05
