Material: glass / ohara / BAH71
Optical constants. OHARA Zemax catalog 2017-11-30 (obtained from http://www.ohara-inc.co.jp)See also OHARA glass data sheets
Specs: {"n_is_absolute": false, "λ_is_vacuum": false, "temperature": "25.0 °C", "coefficients_of_thermal_dispersion": "6.002e-06 0.0 0.0 0.0 0.0 0.0", "n_d": 1.701998, "V_d": 40.097173, "glass_code": 702401, "glass_status": "preferred", "density": "3.97 g/cm3", "coefficient_of_thermal_expansion_1": "7.4e-06 K-1", "coefficient_of_thermal_expansion_2": "8.4e-06 K-1", "ΔP_gF": 0.0003, "acid_resistance": 4.2, "phosphate_resistance": 2.0}
Dispersion formula 3, range 0.3 2.4 um, coefficients 2.8219169 -0.0099182972 2 0.02439388 -2 0.00099651859 -4 -4.5521985e-05 -6 5.5512807e-06 -8
wavelength (um)	k
0.350	1.2826E-05
0.360	5.2500E-06
0.370	2.2864E-06
0.380	1.0786E-06
0.390	5.7828E-07
0.400	3.1774E-07
0.420	1.4341E-07
0.440	9.5838E-08
0.460	7.0220E-08
0.480	5.3854E-08
0.500	3.5972E-08
0.550	1.7542E-08
0.600	2.3933E-08
0.650	3.1129E-08
0.700	2.7922E-08
