Material: glass / ohara / BSM10
Optical constants. OHARA Zemax catalog 2017-11-30 (obtained from http://www.ohara-inc.co.jp)See also OHARA glass data sheets
Specs: {"n_is_absolute": false, "λ_is_vacuum": false, "temperature": "25.0 °C", "coefficients_of_thermal_dispersion": "2.8381e-06 0.0 0.0 0.0 0.0 0.0", "n_d": 1.622799, "V_d": 57.063643, "glass_code": 623571, "glass_status": "preferred", "density": "3.65 g/cm3", "coefficient_of_thermal_expansion_1": "6.8e-06 K-1", "coefficient_of_thermal_expansion_2": "8e-06 K-1", "ΔP_gF": -0.0025}
Dispersion formula 3, range 0.365 0.9 um, coefficients 2.589111 -0.009879155 2 0.01555047 -2 0.0003664276 -4 -1.829782e-05 -6 1.460153e-06 -8
wavelength (um)	k
0.370	1.7905E-07
0.380	1.0773E-07
0.390	7.2215E-08
0.400	4.4878E-08
0.420	3.0216E-08
0.440	2.8124E-08
0.460	2.2030E-08
0.480	1.9146E-08
0.500	1.1955E-08
0.550	8.7623E-09
0.600	1.4345E-08
0.650	2.0732E-08
0.700	1.6736E-08
0.800	1.9127E-08
0.900	2.0800E-08
