Material: glass / ohara / FPL53
Optical constants. OHARA Zemax catalog 2017-11-30 (obtained from http://www.ohara-inc.co.jp)See also OHARA glass data sheets
Specs: {"n_is_absolute": false, "λ_is_vacuum": false, "temperature": "25.0 °C", "n_d": 1.43875, "V_d": 94.960437, "glass_code": 439950, "glass_status": "preferred"}
Dispersion formula 3, range 0.334 2.325 um, coefficients 2.0531286 -0.0043190085 2 0.0062752442 -2 -9.8512972e-06 -4 1.364971e-05 -6 -8.9037944e-07 -8
wavelength (um)	k
0.334	-0.0000E+00
0.350	-0.0000E+00
0.365	-0.0000E+00
0.370	-0.0000E+00
0.380	-0.0000E+00
0.390	-0.0000E+00
0.400	-0.0000E+00
0.420	-0.0000E+00
0.460	-0.0000E+00
0.500	-0.0000E+00
0.660	-0.0000E+00
1.060	-0.0000E+00
1.529	-0.0000E+00
2.325	-0.0000E+00
