Material: glass / sumita / K-PSFn4(M)
Optical constants. SUMITA Zemax catalog 2017-02-02 (obtained from http://www.sumita-opt.co.jp)See also SUMITA optical glass data book
Specs: {"n_is_absolute": false, "λ_is_vacuum": false, "temperature": "20.0 °C", "coefficients_of_thermal_dispersion": "-4.02e-06 2.01e-08 -1.33e-10 1.73e-06 1.55e-09 0.277", "n_d": 1.83932, "V_d": 24.8, "glass_code": 844248, "density": "4.58 g/cm3", "coefficient_of_thermal_expansion_1": "1.03e-05 K-1", "coefficient_of_thermal_expansion_2": "1.22e-05 K-1", "ΔP_gF": 0.0136, "climatic_resistance": 1.0, "acid_resistance": 1.0}
Dispersion formula 3, range 0.4 1.55 um, coefficients 3.2298971 -0.011389181 2 0.047192351 -2 0.0024487094 -4 -6.4886719e-05 -6 2.1045135e-05 -8
wavelength (um)	k
0.360	1.2671E-05
0.370	5.8313E-06
0.380	3.1317E-06
0.390	1.8498E-06
0.400	1.1996E-06
0.420	6.3891E-07
0.440	4.3965E-07
0.460	3.4523E-07
0.480	2.6081E-07
0.500	1.8737E-07
0.550	7.9499E-08
0.600	8.6727E-08
0.650	1.2036E-07
0.700	9.5511E-08
0.800	3.1911E-08
1.060	4.2282E-08
1.500	9.5877E-08
2.000	7.6618E-07
