Material: glass / sumita / K-PSK100(M)
Optical constants. SUMITA Zemax catalog 2017-02-02 (obtained from http://www.sumita-opt.co.jp)See also SUMITA optical glass data book
Specs: {"n_is_absolute": false, "λ_is_vacuum": false, "temperature": "20.0 °C", "coefficients_of_thermal_dispersion": "-8.26e-07 2.08e-08 -1.4e-10 5.32e-07 -2.69e-10 0.175", "n_d": 1.58792, "V_d": 60.6, "glass_code": 592607, "density": "3.24 g/cm3", "coefficient_of_thermal_expansion_1": "9.5e-06 K-1", "coefficient_of_thermal_expansion_2": "1.14e-05 K-1", "ΔP_gF": 0.0048, "climatic_resistance": 1.0, "acid_resistance": 6.0}
Dispersion formula 3, range 0.36 1.55 um, coefficients 2.4831321 -0.0090721125 2 0.013641591 -2 0.00021543576 -4 8.6973883e-06 -6 -6.5012493e-07 -8
wavelength (um)	k
0.320	1.0694E-05
0.330	4.5922E-06
0.340	1.8060E-06
0.350	7.0634E-07
0.360	2.9548E-07
0.370	1.6034E-07
0.380	1.0147E-07
0.390	5.9534E-08
0.400	5.7818E-08
0.420	5.3908E-08
0.440	3.1655E-08
0.460	2.9402E-08
0.480	3.0681E-08
0.500	3.1959E-08
0.550	8.7623E-09
0.600	9.5589E-09
0.650	1.0355E-08
0.700	1.1152E-08
0.800	1.2745E-08
1.060	5.0764E-08
1.500	3.0221E-07
2.000	1.9984E-06
