Material: glass / sumita / K-PSFn3(M)
Optical constants. SUMITA Zemax catalog 2017-02-02 (obtained from http://www.sumita-opt.co.jp)See also SUMITA optical glass data book
Specs: {"n_is_absolute": false, "λ_is_vacuum": false, "temperature": "20.0 °C", "coefficients_of_thermal_dispersion": "-8.51e-06 1.46e-08 -1.46e-10 1.13e-06 1.15e-09 0.294", "n_d": 1.83352, "V_d": 24.0, "glass_code": 839239, "density": "3.9 g/cm3", "coefficient_of_thermal_expansion_1": "9.3e-06 K-1", "coefficient_of_thermal_expansion_2": "1.18e-05 K-1", "ΔP_gF": 0.0182, "climatic_resistance": 1.0, "acid_resistance": 1.0}
Dispersion formula 3, range 0.4 1.55 um, coefficients 3.2096325 -0.014576663 2 0.046141656 -2 0.0029954432 -4 -0.00015107775 -6 3.0074532e-05 -8
wavelength (um)	k
0.380	6.7023E-06
0.390	3.4127E-06
0.400	1.9791E-06
0.420	8.7355E-07
0.440	4.8761E-07
0.460	3.2918E-07
0.480	2.4856E-07
0.500	1.8320E-07
0.550	7.9499E-08
0.600	4.7987E-08
0.650	3.6335E-08
0.700	3.9130E-08
0.800	3.1911E-08
1.060	1.6887E-08
1.500	7.1835E-08
2.000	5.0119E-07
