Material: glass / sumita / K-VC82(M)
Optical constants. SUMITA Zemax catalog 2017-02-02 (obtained from http://www.sumita-opt.co.jp)See also SUMITA optical glass data book
Specs: {"n_is_absolute": false, "λ_is_vacuum": false, "temperature": "20.0 °C", "coefficients_of_thermal_dispersion": "5.27e-06 1.73e-08 -7.19e-11 6.68e-07 9.93e-10 0.203", "n_d": 1.75028, "V_d": 45.4, "glass_code": 756456, "density": "4.25 g/cm3", "coefficient_of_thermal_expansion_1": "5.9e-06 K-1", "coefficient_of_thermal_expansion_2": "8e-06 K-1", "ΔP_gF": -0.0098, "climatic_resistance": 1.0, "acid_resistance": 4.0}
Dispersion formula 3, range 0.36 1.55 um, coefficients 2.9914895 -0.01436707 2 0.024650584 -2 0.00071568019 -4 -2.7938999e-05 -6 3.2293973e-06 -8
wavelength (um)	k
0.320	1.5825E-05
0.330	7.4323E-06
0.340	2.9428E-06
0.350	1.3002E-06
0.360	6.3568E-07
0.370	3.5306E-07
0.380	2.1945E-07
0.390	1.3965E-07
0.400	9.3675E-08
0.420	6.4114E-08
0.440	4.2271E-08
0.460	4.0489E-08
0.480	2.6832E-08
0.500	1.1955E-08
0.550	4.3790E-09
0.600	1.4345E-08
0.650	1.0355E-08
0.700	1.6736E-08
0.800	1.2745E-08
1.060	1.6887E-08
1.500	2.3897E-08
2.000	4.3563E-07
