Material: hikari / CaF / NICF-V
Optical constants. NIKON Zemax catalog 2017-11 (obtained from http://www.nikon.com)See also NIKON calcium fluoride glass data sheet
Comments: TCE value is available for 0 to 25 degrees Celsius.
Specs: {"n_is_absolute": false, "λ_is_vacuum": false, "temperature": "22.5 °C", "coefficients_of_thermal_dispersion": "-3.16e-05 -2.05e-08 9.02e-13 4.32e-07 2.04e-10 0.115", "n_d": 1.433837, "V_d": 95.260792, "density": "3.18 g/cm3", "coefficient_of_thermal_expansion_1": "1.84e-05 K-1", "ΔP_gF": 0.0553, "climatic_resistance": 1.0, "stain_resistance": 0.0, "acid_resistance": 4.5, "alkali_resistance": 2.3, "phosphate_resistance": 1.0}
Dispersion formula 2, range 0.18489 2.32542 um, coefficients 0 0.581797965 0.002477442 0.373232342 0.01032026 0.083677196 0.010323473 2.36293749 738.225998
wavelength (um)	k
0.157	6.2625E-08
0.184	2.9314E-08
0.193	3.0748E-08
0.229	3.6483E-08
0.248	3.9510E-08
0.260	4.1422E-08
0.270	4.3015E-08
0.280	4.4608E-08
0.290	4.6201E-08
0.297	4.7316E-08
0.313	4.9865E-08
0.320	5.0981E-08
0.334	5.3211E-08
0.365	5.8150E-08
0.370	5.8946E-08
0.370	5.8946E-08
0.380	6.0539E-08
0.390	6.2133E-08
0.400	6.3726E-08
0.405	6.4522E-08
0.420	6.6912E-08
0.436	6.9461E-08
0.460	7.3285E-08
0.480	7.6471E-08
0.500	7.9657E-08
0.546	8.6986E-08
0.589	9.3836E-08
0.632	1.0069E-07
0.644	1.0260E-07
0.656	1.0451E-07
0.706	1.1248E-07
1.060	1.6887E-07
1.530	2.4375E-07
1.970	3.1385E-07
2.325	3.7041E-07
2.500	3.9829E-07
