Material: glass / hikari / E-LASF09
Optical constants. NIKON Zemax catalog 2017-11 (obtained from http://www.nikon.com)See also HIKARI glass data sheets
Specs: {"n_is_absolute": false, "λ_is_vacuum": false, "temperature": "23.0 °C", "n_d": 1.816, "V_d": 46.623347, "glass_status": "preferred", "density": "4.98 g/cm3", "coefficient_of_thermal_expansion_1": "7.7e-06 K-1", "ΔP_gF": -0.0092}
Dispersion formula 3, range 0.4 0.7 um, coefficients 3.21588388 -0.0133880786 2 0.0285023144 -2 0.000406364414 -4 2.70180277e-05 -6 -4.64955706e-07 -8
wavelength (um)	k
0.400	-0.0000E+00
0.700	-0.0000E+00
