Material: glass / hikari / E-LAK10
Optical constants. NIKON Zemax catalog 2017-11 (obtained from http://www.nikon.com)See also HIKARI glass data sheets
Specs: {"n_is_absolute": false, "λ_is_vacuum": false, "temperature": "23.0 °C", "n_d": 1.719995, "V_d": 50.228454, "glass_code": 720502, "glass_status": "preferred", "density": "3.74 g/cm3", "coefficient_of_thermal_expansion_1": "8.2e-06 K-1", "ΔP_gF": -0.0065}
Dispersion formula 3, range 0.4 0.7 um, coefficients 2.89528358 -0.0117686807 2 0.0222295765 -2 0.000269351264 -4 2.23005932e-05 -6 -4.3546434e-07 -8
wavelength (um)	k
0.300	1.0994E-05
0.310	5.2305E-06
0.320	2.9824E-06
0.330	1.7682E-06
0.340	1.0835E-06
0.350	6.5654E-07
0.360	3.9896E-07
0.370	2.5834E-07
0.380	1.6467E-07
0.390	1.1379E-07
0.400	8.7125E-08
0.420	5.3908E-08
0.440	4.2271E-08
0.460	2.5714E-08
0.480	1.5310E-08
0.500	3.9809E-09
0.550	4.3790E-09
0.600	4.7770E-09
0.650	5.1751E-09
0.700	5.5732E-09
