Material: glass / hikari / SK4
Optical constants. NIKON Zemax catalog 2017-11 (obtained from http://www.nikon.com)See also HIKARI glass data sheets
Specs: {"n_is_absolute": false, "λ_is_vacuum": false, "temperature": "20.0 °C", "n_d": 1.61272, "V_d": 58.472693, "glass_code": 613585, "glass_status": "preferred", "density": "3.5 g/cm3", "coefficient_of_thermal_expansion_1": "7e-06 K-1", "ΔP_gF": -0.0023}
Dispersion formula 3, range 0.4 0.7 um, coefficients 2.542124 0.002965422 2 0.02316274 -2 -0.001681083 -4 0.0002235719 -6 -1.000551e-05 -8
wavelength (um)	k
0.310	8.6503E-06
0.320	3.7425E-06
0.330	1.7172E-06
0.340	8.1468E-07
0.350	4.2007E-07
0.360	2.5448E-07
0.370	1.4793E-07
0.380	9.5226E-08
0.390	6.2700E-08
0.400	4.4878E-08
0.420	3.0216E-08
0.440	2.8124E-08
0.460	2.2030E-08
0.480	1.1476E-08
0.500	7.9657E-09
0.550	4.3790E-09
0.600	4.7770E-09
0.650	5.1751E-09
0.700	5.5732E-09
