Material: glass / ohara / LAM2
Optical constants. OHARA Zemax catalog 2017-11-30 (obtained from http://www.ohara-inc.co.jp)See also OHARA glass data sheets
Specs: {"n_is_absolute": false, "λ_is_vacuum": false, "temperature": "25.0 °C", "n_d": 1.743997, "V_d": 44.787528, "glass_code": 744448, "glass_status": "preferred"}
Dispersion formula 3, range 0.334 2.325 um, coefficients 2.967968 -0.011312544 2 0.024812309 -2 0.00067776202 -4 -1.0278339e-05 -6 2.1968703e-06 -8
wavelength (um)	k
0.334	-0.0000E+00
0.350	-0.0000E+00
0.365	-0.0000E+00
0.370	-0.0000E+00
0.380	-0.0000E+00
0.390	-0.0000E+00
0.400	-0.0000E+00
0.420	-0.0000E+00
0.460	-0.0000E+00
0.500	-0.0000E+00
0.660	-0.0000E+00
1.060	-0.0000E+00
1.529	-0.0000E+00
2.325	-0.0000E+00
