Material: glass / ohara / PBM28W
Optical constants. OHARA Zemax catalog 2017-11-30 (obtained from http://www.ohara-inc.co.jp)See also OHARA glass data sheets
Specs: {"n_is_absolute": false, "λ_is_vacuum": false, "temperature": "25.0 °C", "coefficients_of_thermal_dispersion": "8.284e-06 0.0 0.0 0.0 0.0 0.0", "n_d": 1.68893, "V_d": 31.082901, "glass_code": 689311, "glass_status": "preferred", "density": "4.22 g/cm3", "coefficient_of_thermal_expansion_1": "8.6e-06 K-1", "coefficient_of_thermal_expansion_2": "9.4e-06 K-1", "ΔP_gF": 0.0031, "acid_resistance": 2.2, "phosphate_resistance": 2.0}
Dispersion formula 3, range 0.3 2.4 um, coefficients 2.75779 -0.0087331797 2 0.030379663 -2 0.0011503031 -4 -1.9167784e-05 -6 7.4745415e-06 -8
wavelength (um)	k
0.340	4.9583E-06
0.350	1.8213E-06
0.360	8.2415E-07
0.370	4.4408E-07
0.380	2.6202E-07
0.390	1.5592E-07
0.400	1.1671E-07
0.420	5.0514E-08
0.440	3.1655E-08
0.460	2.2030E-08
0.480	1.5310E-08
0.500	1.1955E-08
0.550	8.7623E-09
0.600	9.5589E-09
0.650	1.0355E-08
0.700	1.1152E-08
0.800	6.3694E-09
0.900	7.1656E-09
