Material: glass / ohara / BAL15
Optical constants. OHARA Zemax catalog 2017-11-30 (obtained from http://www.ohara-inc.co.jp)See also OHARA glass data sheets
Specs: {"n_is_absolute": false, "λ_is_vacuum": false, "temperature": "25.0 °C", "coefficients_of_thermal_dispersion": "3.255e-06 0.0 0.0 0.0 0.0 0.0", "n_d": 1.556711, "V_d": 58.689461, "glass_code": 557587, "glass_status": "preferred", "density": "2.92 g/cm3", "coefficient_of_thermal_expansion_1": "7.4e-06 K-1", "coefficient_of_thermal_expansion_2": "8.5e-06 K-1", "ΔP_gF": -0.0023, "acid_resistance": 2.2, "phosphate_resistance": 2.0}
Dispersion formula 3, range 0.3 2.4 um, coefficients 2.3876453 -0.0097564209 2 0.01254688 -2 0.00038108489 -4 -2.3656347e-05 -6 1.5068491e-06 -8
wavelength (um)	k
0.300	7.6845E-06
0.310	3.1403E-06
0.320	1.4314E-06
0.330	6.8636E-07
0.340	3.4587E-07
0.350	1.8719E-07
0.360	1.0503E-07
0.370	6.8511E-08
0.380	5.4927E-08
0.390	3.1191E-08
0.400	1.9156E-08
0.420	1.6753E-08
0.440	2.1072E-08
0.460	1.8349E-08
0.480	1.5310E-08
0.500	1.5947E-08
0.550	8.7623E-09
0.600	9.5589E-09
0.650	1.5541E-08
0.700	1.1152E-08
0.800	1.2745E-08
0.900	2.1518E-08
