Material: glass / ohara / PBH6
Optical constants. OHARA Zemax catalog 2017-11-30 (obtained from http://www.ohara-inc.co.jp)See also OHARA glass data sheets
Specs: {"n_is_absolute": false, "λ_is_vacuum": false, "temperature": "25.0 °C", "coefficients_of_thermal_dispersion": "1.501e-05 0.0 0.0 0.0 0.0 0.0", "n_d": 1.805177, "V_d": 25.435012, "glass_code": 805254, "glass_status": "preferred", "density": "5.19 g/cm3", "coefficient_of_thermal_expansion_1": "8.1e-06 K-1", "coefficient_of_thermal_expansion_2": "9e-06 K-1", "ΔP_gF": 0.0097, "acid_resistance": 51.2, "phosphate_resistance": 3.2}
Dispersion formula 3, range 0.3 2.4 um, coefficients 3.120642 -0.011286328 2 0.040543249 -2 0.0033876996 -4 -0.00024180036 -6 2.7440285e-05 -8
wavelength (um)	k
0.360	6.3234E-06
0.370	2.7724E-06
0.380	1.3972E-06
0.390	8.1115E-07
0.400	4.8008E-07
0.420	1.8907E-07
0.440	9.2241E-08
0.460	5.5324E-08
0.480	3.4533E-08
0.500	1.9944E-08
0.550	8.7623E-09
0.600	9.5589E-09
0.650	1.5541E-08
0.700	1.1152E-08
0.800	1.2745E-08
0.900	7.1656E-09
