Material: main / Fe / Werner
Optical constants. W. S. M. Werner, K. Glantschnig, C. Ambrosch-Draxl. Optical constants and inelastic electron-scattering data for 17 elemental metals, J. Phys Chem Ref. Data 38, 1013-1092 (2009)
Comments: Experimental data: Derived from reflection electron energy-loss spectroscopy (REELS) spectra.
Specs: {"n_is_absolute": true, "Î»_is_vacuum": true}
wavelength (um)	n	k
0.017586	0.8555	0.1262
0.017712	0.8552	0.1316
0.017839	0.8543	0.1370
0.017969	0.8546	0.1428
0.018100	0.8545	0.1486
0.018233	0.8555	0.1543
0.018368	0.8566	0.1605
0.018505	0.8582	0.1660
0.018644	0.8605	0.1714
0.018785	0.8633	0.1767
0.018929	0.8666	0.1817
0.019074	0.8704	0.1861
0.019222	0.8741	0.1899
0.019373	0.8775	0.1926
0.019525	0.8815	0.1951
0.019680	0.8847	0.1967
0.019837	0.8877	0.1977
0.019997	0.8900	0.1978
0.020160	0.8916	0.1974
0.020325	0.8916	0.1974
0.020493	0.8908	0.1964
0.020664	0.8885	0.1958
0.020838	0.8846	0.1961
0.021014	0.8784	0.1964
0.021194	0.8704	0.1988
0.021377	0.8596	0.2024
0.021562	0.8466	0.2091
0.021752	0.8303	0.2198
0.021944	0.8100	0.2370
0.022140	0.7867	0.2644
0.022339	0.7617	0.3085
0.022543	0.7433	0.3787
0.022749	0.7524	0.4838
0.022960	0.8287	0.6106
0.023175	1.0068	0.6948
0.023393	1.2220	0.6326
0.023616	1.3227	0.4642
0.023843	1.3147	0.3263
0.024075	1.2744	0.2432
0.024311	1.2334	0.1954
0.024551	1.1982	0.1665
0.024797	1.1692	0.1484
0.025047	1.1452	0.1362
0.025303	1.1253	0.1280
0.025564	1.1081	0.1218
0.025830	1.0936	0.1180
0.026102	1.0804	0.1148
0.026380	1.0685	0.1128
0.026663	1.0580	0.1111
0.026953	1.0484	0.1102
0.027249	1.0397	0.1092
0.027552	1.0315	0.1091
0.027862	1.0237	0.1089
0.028178	1.0158	0.1093
0.028502	1.0090	0.1095
0.028834	1.0021	0.1103
0.029173	0.9957	0.1115
0.029520	0.9887	0.1123
0.029876	0.9828	0.1135
0.030240	0.9764	0.1152
0.030613	0.9703	0.1165
0.030996	0.9644	0.1182
0.031388	0.9578	0.1201
0.031791	0.9518	0.1224
0.032204	0.9458	0.1248
0.032627	0.9398	0.1272
0.033062	0.9337	0.1296
0.033509	0.9271	0.1327
0.033968	0.9211	0.1357
0.034440	0.9145	0.1389
0.034925	0.9079	0.1426
0.035424	0.9008	0.1465
0.035937	0.8937	0.1505
0.036466	0.8866	0.1551
0.037010	0.8795	0.1597
0.037571	0.8718	0.1646
0.038149	0.8643	0.1701
0.038745	0.8562	0.1764
0.039360	0.8476	0.1829
0.039995	0.8391	0.1901
0.040651	0.8301	0.1976
0.041328	0.8212	0.2058
0.042029	0.8119	0.2149
0.042753	0.8023	0.2250
0.043503	0.7923	0.2360
0.044280	0.7820	0.2481
0.045085	0.7715	0.2612
0.045920	0.7608	0.2754
0.046786	0.7502	0.2912
0.047686	0.7399	0.3088
0.048621	0.7301	0.3287
0.049594	0.7206	0.3497
0.050606	0.7121	0.3729
0.051660	0.7046	0.3981
0.052759	0.6990	0.4249
0.053906	0.6959	0.4541
0.055104	0.6947	0.4844
0.056356	0.6968	0.5152
0.057667	0.7022	0.5469
0.059040	0.7109	0.5774
0.060480	0.7227	0.6061
0.061992	0.7369	0.6324
0.063582	0.7517	0.6558
0.065255	0.7669	0.6754
0.067018	0.7793	0.6923
0.068880	0.7889	0.7073
0.070848	0.7941	0.7222
0.072932	0.7960	0.7393
0.075142	0.7944	0.7603
0.077490	0.7912	0.7855
0.079990	0.7883	0.8163
0.082656	0.7862	0.8522
0.085506	0.7869	0.8934
0.088560	0.7911	0.9380
0.091840	0.7994	0.9864
0.095372	0.8123	1.0372
0.099187	0.8299	1.0899
0.103320	0.8523	1.1434
0.107812	0.8791	1.1966
0.112713	0.9105	1.2494
0.118080	0.9448	1.3003
0.123984	0.9811	1.3485
0.130510	1.0174	1.3943
0.137760	1.0508	1.4374
0.145864	1.0780	1.4792
0.154980	1.0952	1.5230
0.165312	1.0979	1.5749
0.177120	1.0834	1.6440
0.190745	1.0524	1.7437
0.206640	1.0114	1.8905
0.225426	0.9786	2.1009
0.247968	0.9848	2.3822
0.261019	1.0157	2.5445
0.275520	1.0709	2.7112
0.291728	1.1477	2.8678
0.309960	1.2262	2.9991
0.330625	1.2657	3.1106
0.354241	1.2321	3.2521
0.381490	1.1422	3.4954
0.413281	1.0547	3.8792
0.450852	1.0197	4.4072
0.495937	1.0666	5.0863
0.551041	1.2276	5.9541
0.619921	1.5753	7.0964
0.708481	2.3096	8.6751
0.826561	4.0769	10.9173
0.991874	9.0305	12.9363
1.239842	14.9781	8.1082
1.653123	14.0346	3.2184
2.479684	12.6146	1.4154
