Material: human body / blood / Rowe
Optical constants. D. J. Rowe, D. Smith, J. S. Wilkinson. Complex refractive index spectra of whole blood and aqueous solutions of anticoagulants, analgesics and buffers in the mid-infrared, Sci. Rep. 7, 7356 (2017) (Numerical data kindly provided by David Rowe)
Specs: {"n_is_absolute": true, "_is_vacuum": false}
wavelength (um)	n	k
2.000600	1.300967	0.001066
2.005242	1.300874	0.000991
2.009905	1.300651	0.001054
2.014590	1.300635	0.001028
2.019297	1.300322	0.000884
2.024026	1.300174	0.001003
2.028778	1.300110	0.000874
2.033551	1.299769	0.000906
2.038347	1.299666	0.000829
2.043166	1.299665	0.000927
2.048008	1.299384	0.000917
2.052872	1.299176	0.001205
2.057760	1.299239	0.000895
2.062671	1.299333	0.001305
2.067606	1.299319	0.000867
2.072564	1.298783	0.000558
2.077546	1.295853	-0.001088
2.082552	1.297004	0.000764
2.087583	1.296603	0.000679
2.092637	1.297712	0.001394
2.097717	1.297521	0.000446
2.102821	1.297001	0.000378
2.107949	1.296622	0.000324
2.113103	1.296330	0.000269
2.118283	1.295966	0.000341
2.123487	1.295694	0.000242
2.128717	1.295337	0.000327
2.133974	1.295089	0.000272
2.139256	1.294736	0.000266
2.144564	1.294457	0.000301
2.149899	1.294095	0.000280
2.155260	1.293776	0.000259
2.160648	1.293393	0.000288
2.166063	1.293098	0.000352
2.171506	1.292791	0.000356
2.176975	1.292428	0.000299
2.182473	1.292057	0.000305
2.187998	1.291772	0.000404
2.193551	1.291367	0.000469
2.199133	1.291092	0.000394
2.204743	1.290727	0.000419
2.210382	1.290303	0.000434
2.216049	1.289922	0.000517
2.221746	1.289636	0.000409
2.227472	1.289267	0.000431
2.233228	1.288786	0.000358
2.239014	1.288368	0.000443
2.244829	1.288029	0.000391
2.250675	1.287583	0.000457
2.256552	1.287166	0.000312
2.262459	1.286636	0.000345
2.268397	1.286126	0.000463
2.274367	1.285719	0.000375
2.280367	1.285273	0.000393
2.286400	1.284698	0.000416
2.292465	1.284101	0.000397
2.298562	1.283562	0.000504
2.304691	1.283116	0.000552
2.310854	1.282520	0.000249
2.317049	1.281682	0.000083
2.323278	1.280291	0.001082
2.329540	1.281486	0.000210
2.335836	1.280149	0.000432
2.342166	1.279856	0.000845
2.348531	1.279283	0.000657
2.354930	1.278535	0.000589
2.361364	1.277753	0.000639
2.367834	1.277109	0.000745
2.374339	1.276378	0.000652
2.380880	1.275695	0.000730
2.387457	1.274890	0.000716
2.394070	1.274102	0.000803
2.400720	1.273309	0.000824
2.407407	1.272484	0.000908
2.414132	1.271639	0.000902
2.420894	1.270772	0.000948
2.427695	1.269857	0.000990
2.434533	1.268885	0.001043
2.441410	1.267940	0.001049
2.448327	1.266913	0.001125
2.455282	1.265873	0.001206
2.462277	1.264783	0.001235
2.469312	1.263643	0.001254
2.476388	1.262469	0.001286
2.483504	1.261176	0.001374
2.490661	1.259878	0.001441
2.497859	1.258532	0.001492
2.505099	1.257044	0.001559
2.512382	1.255433	0.001624
2.519706	1.253791	0.001778
2.527074	1.251986	0.001887
2.534485	1.250138	0.002365
2.541939	1.247842	0.002454
2.549437	1.245853	0.002971
2.556980	1.243266	0.002321
2.564568	1.243210	0.007359
2.572200	1.239183	0.005122
2.579878	1.236563	0.004463
2.587603	1.234123	0.007705
2.595373	1.232281	0.065075
2.603191	1.234759	0.007453
2.611055	1.235353	0.006339
2.618967	1.230811	0.011754
2.626928	1.225703	0.009213
2.634937	1.227532	0.007782
2.642995	1.219078	0.006715
2.651102	1.212623	0.007903
2.659259	1.206399	0.010502
2.667467	1.203767	0.026522
2.675725	1.204717	0.019212
2.684035	1.202792	0.017149
2.692396	1.193386	0.018968
2.700810	1.189609	0.020511
2.709277	1.179509	0.026432
2.717796	1.172890	0.029946
2.726370	1.171108	0.038584
2.734998	1.162108	0.044480
2.743680	1.160631	0.053244
2.752418	1.153219	0.060135
2.761212	1.150187	0.068973
2.770062	1.146928	0.079346
2.778969	1.143489	0.088277
2.787933	1.141143	0.100407
2.796956	1.139146	0.109483
2.806037	1.138385	0.122197
2.815177	1.136854	0.133582
2.824377	1.137399	0.146809
2.833637	1.138036	0.160391
2.842958	1.140564	0.174499
2.852341	1.142821	0.189038
2.861786	1.147131	0.206253
2.871293	1.154282	0.225132
2.880864	1.165966	0.243787
2.890499	1.182702	0.259146
2.900199	1.199658	0.270436
2.909964	1.216727	0.280446
2.919795	1.235236	0.288233
2.929692	1.252850	0.294555
2.939657	1.273677	0.300427
2.949690	1.294602	0.301106
2.959792	1.315575	0.299146
2.969963	1.334302	0.293548
2.980204	1.350728	0.286503
2.990517	1.364604	0.278389
3.000900	1.376158	0.271763
3.011356	1.388102	0.265328
3.021886	1.398963	0.258521
3.032489	1.410719	0.252136
3.043166	1.421915	0.244887
3.053920	1.433319	0.237124
3.064749	1.444401	0.226310
3.075656	1.454148	0.215485
3.086640	1.461585	0.203413
3.097703	1.469402	0.191560
3.108846	1.475789	0.178176
3.120070	1.480011	0.164549
3.131374	1.482601	0.150814
3.142761	1.483266	0.137424
3.154231	1.482288	0.125386
3.165785	1.480783	0.114551
3.177424	1.478725	0.104542
3.189149	1.476044	0.095041
3.200960	1.473020	0.086585
3.212860	1.469695	0.078909
3.224848	1.466437	0.071756
3.236926	1.463008	0.065126
3.249095	1.459696	0.058940
3.261356	1.456346	0.052789
3.273709	1.452458	0.046509
3.286157	1.447658	0.040708
3.298700	1.442240	0.036238
3.311338	1.437088	0.032872
3.324074	1.432248	0.030278
3.336908	1.427838	0.028396
3.349842	1.423900	0.026964
3.362877	1.420837	0.025882
3.376013	1.418385	0.024728
3.389252	1.416134	0.022953
3.402596	1.413867	0.021315
3.416045	1.411843	0.019178
3.429600	1.408909	0.016722
3.443264	1.405986	0.015348
3.457037	1.403220	0.014026
3.470921	1.400662	0.013051
3.484916	1.398523	0.011999
3.499025	1.396243	0.010560
3.513249	1.393471	0.009401
3.527589	1.391139	0.008856
3.542046	1.388946	0.008148
3.556623	1.386806	0.007470
3.571319	1.384689	0.006845
3.586138	1.382629	0.006330
3.601080	1.380632	0.005892
3.616148	1.378750	0.005510
3.631341	1.376905	0.005130
3.646664	1.375100	0.004799
3.662116	1.373332	0.004509
3.677699	1.371597	0.004283
3.693416	1.369897	0.004111
3.709267	1.368271	0.004044
3.725255	1.366760	0.003988
3.741382	1.365316	0.003948
3.757649	1.363924	0.003888
3.774058	1.362564	0.003829
3.790611	1.361231	0.003761
3.807310	1.359914	0.003718
3.824156	1.358616	0.003707
3.841152	1.357345	0.003712
3.858300	1.356119	0.003741
3.875602	1.354934	0.003771
3.893060	1.353758	0.003812
3.910675	1.352581	0.003859
3.928451	1.351438	0.003953
3.946389	1.350344	0.004058
3.964492	1.349257	0.004169
3.982762	1.348207	0.004267
4.001200	1.347161	0.004396
4.019811	1.346129	0.004527
4.038595	1.345147	0.004658
4.057555	1.344169	0.004814
4.076695	1.343174	0.004937
4.096016	1.342174	0.005115
4.115520	1.341226	0.005302
4.135212	1.340289	0.005503
4.155093	1.339357	0.005689
4.175166	1.338397	0.005899
4.195433	1.337469	0.006155
4.215899	1.336561	0.006425
4.236565	1.335671	0.006712
4.257435	1.334799	0.007016
4.278511	1.333945	0.007333
4.299797	1.333109	0.007662
4.321296	1.332289	0.007995
4.343011	1.331465	0.008335
4.364946	1.330629	0.008699
4.387103	1.329780	0.009106
4.409486	1.328909	0.009623
4.432099	1.328151	0.010287
4.454945	1.327560	0.010970
4.478027	1.327139	0.011643
4.501350	1.326838	0.012163
4.524918	1.326551	0.012588
4.548733	1.326264	0.012903
4.572800	1.325949	0.013127
4.597124	1.325548	0.013342
4.621707	1.325133	0.013624
4.646555	1.324821	0.013976
4.671672	1.324626	0.014238
4.697061	1.324509	0.014326
4.722728	1.324312	0.014257
4.748677	1.324024	0.014117
4.774913	1.323685	0.013961
4.801440	1.323303	0.013714
4.828264	1.322843	0.013416
4.855389	1.322298	0.013055
4.882821	1.321595	0.012698
4.910564	1.320878	0.012385
4.938624	1.320056	0.012034
4.967007	1.319231	0.011701
4.995718	1.318208	0.011308
5.024763	1.317240	0.011143
5.054148	1.316089	0.010609
5.083878	1.314824	0.010389
5.113960	1.313510	0.009942
5.144400	1.311988	0.009868
5.175205	1.310483	0.009328
5.206381	1.308663	0.009505
5.237935	1.307138	0.009168
5.269874	1.305067	0.008980
5.302204	1.303258	0.009059
5.334934	1.300644	0.009008
5.368070	1.298981	0.009264
5.401620	1.295909	0.009391
5.435593	1.294070	0.009996
5.469995	1.290982	0.011108
5.504836	1.287935	0.010689
5.540124	1.284130	0.011517
5.575866	1.280387	0.013595
5.612073	1.276385	0.013960
5.648753	1.272180	0.017438
5.685916	1.266838	0.018568
5.723571	1.261384	0.022446
5.761728	1.254433	0.027952
5.800398	1.247637	0.030983
5.839590	1.240343	0.041007
5.879315	1.230762	0.057474
5.919584	1.226573	0.072533
5.960409	1.229526	0.098798
6.001800	1.242919	0.123399
6.043771	1.262949	0.149882
6.086333	1.302609	0.155829
6.129498	1.340547	0.145023
6.173281	1.359586	0.114796
6.217693	1.361257	0.089634
6.262748	1.355874	0.071729
6.308462	1.346062	0.061607
6.354848	1.338423	0.059738
6.401921	1.330839	0.061343
6.449696	1.334955	0.064717
6.498190	1.342411	0.066294
6.547419	1.342378	0.055070
6.597399	1.342526	0.049749
6.648148	1.340944	0.044534
6.699684	1.335071	0.039044
6.752026	1.329198	0.036175
6.805191	1.325881	0.037945
6.859201	1.322455	0.040612
6.914074	1.322102	0.037692
6.969833	1.319891	0.037595
7.026498	1.315863	0.036948
7.084092	1.314443	0.037523
7.142639	1.312948	0.039986
7.202161	1.313913	0.039416
7.262683	1.312193	0.037297
7.324231	1.309980	0.037045
7.386831	1.308166	0.036560
7.450511	1.305726	0.036851
7.515298	1.303888	0.036982
7.581222	1.302034	0.038105
7.648312	1.300913	0.038480
7.716601	1.299585	0.038553
7.786120	1.298061	0.038585
7.856902	1.296258	0.038697
7.928984	1.294502	0.039027
8.002401	1.293017	0.039697
8.077189	1.292111	0.039798
8.153389	1.290638	0.038796
8.231041	1.288058	0.038083
8.310185	1.285212	0.038031
8.390867	1.282251	0.038345
8.473130	1.279187	0.039070
8.557022	1.277040	0.040485
8.642593	1.274940	0.040791
8.729892	1.272347	0.040777
8.818972	1.268853	0.041532
8.909889	1.266176	0.042517
9.002701	1.263169	0.043217
9.097466	1.260050	0.044003
9.194248	1.256656	0.045157
9.293110	1.253866	0.046007
9.394123	1.250292	0.046204
9.497355	1.246024	0.046778
9.602881	1.241619	0.047729
9.710778	1.236860	0.048402
9.821128	1.231303	0.049264
9.934015	1.225088	0.050274
10.049526	1.217951	0.052253
10.167756	1.210531	0.054976
10.288801	1.202614	0.058647
10.412762	1.194600	0.062872
10.539747	1.185988	0.067747
10.669868	1.176762	0.074421
10.803241	1.167953	0.081962
10.939991	1.158997	0.090695
11.080247	1.149727	0.100799
11.224146	1.140811	0.112715
11.371833	1.132681	0.126568
11.523457	1.125408	0.141397
11.679179	1.119045	0.158991
11.839168	1.114875	0.178044
12.003601	1.112901	0.198198
12.172666	1.112820	0.220209
12.346561	1.117532	0.241565
12.525497	1.124768	0.263096
12.709695	1.133258	0.284059
12.899392	1.142543	0.302099
13.094837	1.152673	0.320380
13.296296	1.164363	0.339582
13.504051	1.177740	0.354436
13.718401	1.191848	0.370016
13.939666	1.206682	0.384123
14.168185	1.221734	0.395969
14.404321	1.236377	0.408290
14.648462	1.250771	0.420105
14.901022	1.265045	0.427952
