Material: organic / C2H6O2 - ethylene glycol / Sani-formula
Optical constants. 1) E. Sani and A. Dell'Oro. Optical constants of ethylene glycol over an extremely wide spectral range, Optical Materials 37, 36-41 (2014)2) E. Sani and A. Dell'Oro. Corrigendum to "Optical constants of ethylene glycol over an extremely wide spectral range", Optical Materials 48, 281 (2015)
Comments: Room temperature
Dispersion formula 2, range 0.185 2.8 um, coefficients 0 0.01778 9.02 1.01887 0.01028
wavelength (um)	k
0.1852	4.897E-4
0.1863	4.779E-4
0.1874	4.662E-4
0.1885	4.313E-4
0.1896	3.932E-4
0.1907	3.538E-4
0.1919	3.135E-4
0.1931	2.750E-4
0.1942	2.384E-4
0.1954	2.036E-4
0.1966	1.719E-4
0.1979	1.417E-4
0.1991	1.151E-4
0.2004	8.936E-5
0.2016	7.382E-5
0.2029	5.828E-5
0.2042	4.303E-5
0.2055	3.409E-5
0.2069	2.621E-5
0.2082	1.832E-5
0.2096	1.360E-5
0.2110	1.052E-5
0.2124	7.439E-6
0.2138	5.543E-6
0.2153	4.621E-6
0.2167	3.699E-6
0.2182	3.156E-6
0.2197	2.907E-6
0.2213	2.660E-6
0.2228	2.521E-6
0.2244	2.432E-6
0.2260	2.343E-6
0.2276	2.237E-6
0.2292	2.128E-6
0.2309	2.009E-6
0.2326	1.864E-6
0.2343	1.718E-6
0.2361	1.596E-6
0.2378	1.483E-6
0.2396	1.379E-6
0.2414	1.301E-6
0.2433	1.225E-6
0.2452	1.165E-6
0.2471	1.110E-6
0.2490	1.068E-6
0.2510	1.037E-6
0.2530	1.006E-6
0.2550	9.755E-7
0.2570	9.459E-7
0.2591	9.172E-7
0.2613	8.900E-7
0.2634	8.678E-7
0.2656	8.522E-7
0.2679	8.642E-7
0.2702	8.668E-7
0.2725	8.436E-7
0.2748	8.263E-7
0.2772	8.188E-7
0.2797	7.984E-7
0.2821	7.681E-7
0.2847	7.343E-7
0.2872	6.992E-7
0.2899	6.619E-7
0.2925	6.402E-7
0.2952	6.378E-7
0.2980	6.440E-7
0.3008	6.293E-7
0.3037	5.576E-7
0.3066	4.360E-7
0.3096	3.106E-7
0.3127	2.136E-7
0.3158	1.779E-7
0.3189	1.609E-7
0.3222	1.480E-7
0.3255	1.350E-7
0.3288	1.235E-7
0.3323	1.134E-7
0.3358	1.051E-7
0.3394	9.146E-8
0.3430	3.811E-8
0.3468	3.122E-8
0.3506	3.156E-8
0.3545	3.192E-8
0.3585	3.228E-8
0.3626	3.264E-8
0.3668	3.302E-8
0.3710	3.341E-8
0.3754	3.380E-8
0.3799	3.420E-8
0.3845	3.462E-8
0.3892	3.504E-8
0.3940	3.548E-8
0.3990	3.592E-8
0.4040	3.638E-8
0.4092	3.685E-8
0.4146	3.733E-8
0.4201	3.782E-8
0.4257	3.832E-8
0.4315	3.885E-8
0.4374	3.938E-8
0.4435	3.993E-8
0.4498	4.049E-8
0.4562	4.107E-8
0.4629	4.167E-8
0.4697	4.229E-8
0.4767	4.292E-8
0.4840	4.358E-8
0.4915	4.425E-8
0.4992	4.494E-8
0.5072	4.566E-8
0.5154	4.640E-8
0.5239	4.717E-8
0.5326	4.796E-8
0.5417	4.877E-8
0.5511	4.962E-8
0.5608	5.049E-8
0.5709	5.140E-8
0.5813	5.234E-8
0.5922	5.332E-8
0.6034	5.433E-8
0.6151	5.538E-8
0.6272	5.647E-8
0.6398	5.761E-8
0.6530	5.879E-8
0.6667	6.002E-8
0.6685	6.018E-8
0.6721	6.051E-8
0.6757	6.084E-8
0.6795	6.117E-8
0.6832	6.151E-8
0.6870	6.185E-8
0.6908	6.220E-8
0.6947	6.254E-8
0.6986	6.290E-8
0.7025	6.325E-8
0.7066	6.361E-8
0.7106	6.398E-8
0.7147	6.435E-8
0.7188	6.472E-8
0.7230	6.510E-8
0.7273	6.548E-8
0.7316	6.587E-8
0.7359	6.626E-8
0.7403	6.665E-8
0.7447	6.705E-8
0.7492	6.746E-8
0.7538	6.787E-8
0.7584	6.828E-8
0.7631	6.870E-8
0.7678	6.913E-8
0.7726	6.956E-8
0.7774	7.000E-8
0.7823	7.044E-8
0.7873	7.088E-8
0.7923	7.134E-8
0.7974	7.180E-8
0.8026	7.226E-8
0.8078	7.273E-8
0.8131	7.321E-8
0.8185	7.369E-8
0.8239	7.418E-8
0.8294	7.468E-8
0.8350	7.518E-8
0.8407	7.569E-8
0.8464	7.621E-8
0.8522	7.673E-8
0.8581	7.726E-8
0.8641	7.780E-8
0.8702	7.835E-8
0.8763	1.039E-7
0.8826	1.576E-7
0.8889	2.659E-7
0.8953	4.007E-7
0.9018	5.479E-7
0.9084	6.930E-7
0.9151	7.939E-7
0.9219	8.604E-7
0.9288	8.395E-7
0.9358	7.856E-7
0.9430	6.968E-7
0.9502	6.730E-7
0.9575	6.787E-7
0.9650	9.129E-7
0.9725	1.188E-6
0.9802	1.592E-6
0.9880	1.919E-6
0.9960	2.061E-6
1.004	2.150E-6
1.012	2.185E-6
1.021	2.174E-6
1.029	2.142E-6
1.038	2.120E-6
1.046	2.095E-6
1.055	2.031E-6
1.064	1.958E-6
1.074	1.865E-6
1.083	1.771E-6
1.093	1.676E-6
1.102	1.606E-6
1.112	1.546E-6
1.122	1.652E-6
1.132	1.851E-6
1.143	2.615E-6
1.153	3.640E-6
1.164	5.203E-6
1.175	7.349E-6
1.187	1.001E-5
1.198	1.162E-5
1.210	1.284E-5
1.222	1.104E-5
1.234	9.161E-6
1.246	8.084E-6
1.259	7.211E-6
1.272	6.735E-6
1.285	6.246E-6
1.298	5.746E-6
1.312	6.066E-6
1.326	6.666E-6
1.341	9.252E-6
1.355	1.215E-5
1.370	1.621E-5
1.385	2.290E-5
1.401	3.439E-5
1.417	5.545E-5
1.434	8.410E-5
1.450	1.028E-4
1.467	1.183E-4
1.485	1.236E-4
1.503	1.295E-4
1.521	1.293E-4
1.540	1.328E-4
1.560	1.433E-4
1.580	1.518E-4
1.600	1.439E-4
1.621	1.219E-4
1.642	1.005E-4
1.664	8.641E-5
1.687	9.243E-5
1.710	1.232E-4
1.734	1.175E-4
1.759	1.109E-4
1.784	1.016E-4
1.810	8.182E-5
1.837	6.743E-5
1.865	6.250E-5
1.893	7.602E-5
1.922	1.342E-4
1.953	1.583E-4
1.984	1.484E-4
2.005	1.633E-4
2.015	1.857E-4
2.024	2.217E-4
2.034	2.723E-4
2.045	3.349E-4
2.055	4.009E-4
2.065	4.600E-4
2.075	5.029E-4
2.086	5.252E-4
2.096	5.268E-4
2.107	5.106E-4
2.118	4.827E-4
2.129	4.491E-4
2.140	4.140E-4
2.151	3.802E-4
2.162	3.495E-4
2.174	3.237E-4
2.185	3.028E-4
2.197	2.867E-4
2.208	2.754E-4
2.220	2.706E-4
2.232	2.774E-4
2.244	3.121E-4
2.257	4.082E-4
2.269	5.904E-4
2.282	7.882E-4
2.294	8.133E-4
2.307	6.770E-4
2.320	5.955E-4
2.333	5.614E-4
2.346	5.182E-4
2.360	4.956E-4
2.373	4.882E-4
2.387	5.090E-4
2.401	5.452E-4
2.415	5.595E-4
2.429	5.855E-4
2.443	6.448E-4
2.458	7.694E-4
2.473	9.943E-4
2.487	1.200E-3
2.503	1.220E-3
2.518	1.140E-3
2.533	1.000E-3
2.549	8.820E-4
2.565	7.415E-4
2.581	5.952E-4
2.597	5.690E-4
2.613	6.281E-4
2.630	7.097E-4
2.647	7.452E-4
2.664	7.882E-4
2.681	8.960E-4
2.699	9.870E-4
2.716	1.020E-3
2.734	1.420E-3
2.752	2.440E-3
2.771	4.170E-3
2.790	7.180E-3
