Material: main / Pb / Werner
Optical constants. W. S. M. Werner, K. Glantschnig, C. Ambrosch-Draxl. Optical constants and inelastic electron-scattering data for 17 elemental metals, J. Phys Chem Ref. Data 38, 1013-1092 (2009)
Comments: Experimental data: Derived from reflection electron energy-loss spectroscopy (REELS) spectra.
Specs: {"n_is_absolute": true, "Î»_is_vacuum": true}
wavelength (um)	n	k
0.017586	0.8573	0.0951
0.017712	0.8561	0.0993
0.017839	0.8549	0.1041
0.017969	0.8543	0.1089
0.018100	0.8538	0.1142
0.018233	0.8534	0.1195
0.018368	0.8536	0.1248
0.018505	0.8544	0.1305
0.018644	0.8547	0.1363
0.018785	0.8562	0.1419
0.018929	0.8579	0.1480
0.019074	0.8600	0.1535
0.019222	0.8628	0.1594
0.019373	0.8656	0.1652
0.019525	0.8695	0.1702
0.019680	0.8733	0.1752
0.019837	0.8777	0.1800
0.019997	0.8826	0.1841
0.020160	0.8873	0.1877
0.020325	0.8925	0.1910
0.020493	0.8981	0.1937
0.020664	0.9035	0.1959
0.020838	0.9087	0.1970
0.021014	0.9144	0.1979
0.021194	0.9193	0.1980
0.021377	0.9236	0.1976
0.021562	0.9284	0.1971
0.021752	0.9319	0.1958
0.021944	0.9353	0.1946
0.022140	0.9377	0.1930
0.022339	0.9399	0.1910
0.022543	0.9412	0.1891
0.022749	0.9420	0.1879
0.022960	0.9423	0.1868
0.023175	0.9421	0.1858
0.023393	0.9409	0.1849
0.023616	0.9398	0.1851
0.023843	0.9379	0.1861
0.024075	0.9360	0.1875
0.024311	0.9344	0.1900
0.024551	0.9329	0.1930
0.024797	0.9312	0.1976
0.025047	0.9306	0.2026
0.025303	0.9303	0.2085
0.025564	0.9318	0.2152
0.025830	0.9346	0.2225
0.026102	0.9395	0.2294
0.026380	0.9458	0.2358
0.026663	0.9534	0.2407
0.026953	0.9626	0.2441
0.027249	0.9727	0.2452
0.027552	0.9821	0.2439
0.027862	0.9903	0.2403
0.028178	0.9971	0.2352
0.028502	1.0017	0.2291
0.028834	1.0044	0.2230
0.029173	1.0050	0.2169
0.029520	1.0040	0.2122
0.029876	1.0018	0.2086
0.030240	0.9989	0.2067
0.030613	0.9957	0.2059
0.030996	0.9924	0.2071
0.031388	0.9903	0.2090
0.031791	0.9890	0.2123
0.032204	0.9889	0.2164
0.032627	0.9903	0.2206
0.033062	0.9933	0.2250
0.033509	0.9980	0.2280
0.033968	1.0039	0.2296
0.034440	1.0103	0.2296
0.034925	1.0167	0.2272
0.035424	1.0226	0.2230
0.035937	1.0271	0.2166
0.036466	1.0295	0.2093
0.037010	1.0302	0.2009
0.037571	1.0285	0.1920
0.038149	1.0245	0.1835
0.038745	1.0182	0.1753
0.039360	1.0101	0.1683
0.039995	1.0002	0.1625
0.040651	0.9885	0.1583
0.041328	0.9748	0.1559
0.042029	0.9602	0.1552
0.042753	0.9443	0.1573
0.043503	0.9269	0.1618
0.044280	0.9093	0.1699
0.045085	0.8906	0.1819
0.045920	0.8739	0.1991
0.046786	0.8592	0.2217
0.047686	0.8509	0.2491
0.048621	0.8515	0.2777
0.049594	0.8616	0.3023
0.050606	0.8772	0.3169
0.051660	0.8897	0.3187
0.052759	0.8901	0.3118
0.053906	0.8736	0.3068
0.055104	0.8411	0.3139
0.056356	0.7986	0.3431
0.057667	0.7552	0.4078
0.059040	0.7384	0.5180
0.060480	0.7928	0.6622
0.061992	0.9590	0.7763
0.063582	1.1944	0.7460
0.065255	1.3296	0.5656
0.067018	1.3223	0.3929
0.068880	1.2587	0.2852
0.070848	1.1864	0.2250
0.072932	1.1170	0.1916
0.075142	1.0515	0.1750
0.077490	0.9877	0.1691
0.079990	0.9243	0.1715
0.082656	0.8587	0.1828
0.085506	0.7903	0.2037
0.088560	0.7167	0.2379
0.091840	0.6396	0.2900
0.095372	0.5654	0.3670
0.099187	0.5066	0.4698
0.103320	0.4736	0.5902
0.107812	0.4694	0.7158
0.112713	0.4910	0.8391
0.118080	0.5367	0.9540
0.123984	0.6066	1.0526
0.130510	0.6952	1.1235
0.137760	0.7877	1.1508
0.145864	0.8540	1.1306
0.154980	0.8577	1.0820
0.165312	0.7807	1.0510
0.177120	0.6389	1.0886
0.190745	0.4807	1.2264
0.206640	0.3568	1.4489
0.225426	0.2786	1.7250
0.247968	0.2366	2.0418
0.261019	0.2257	2.2172
0.275520	0.2209	2.4064
0.291728	0.2217	2.6121
0.309960	0.2278	2.8378
0.330625	0.2403	3.0882
0.354241	0.2596	3.3692
0.381490	0.2880	3.6886
0.413281	0.3288	4.0577
0.450852	0.3888	4.4919
0.495937	0.4844	5.0139
0.551041	0.6652	5.6483
0.619921	1.0459	6.2831
0.708481	1.1348	6.7819
0.826561	1.1604	7.9570
0.991874	1.5028	9.6118
1.239842	2.2133	11.9441
1.653123	3.6716	15.5171
2.479684	7.1516	21.5967
