Material: glass / hoya / FD60-W
Optical constants. HOYA Zemax catalog 2017-04-01 (obtained from http://www.hoya-opticalworld.com)
Comments: Recommended glass type
Specs: {"n_is_absolute": false, "λ_is_vacuum": false, "temperature": "20.0 °C", "coefficients_of_thermal_dispersion": "-5.29e-06 9.6e-09 -5.1e-11 1.06e-06 1.34e-09 0.282", "n_d": 1.80518, "V_d": 25.46, "glass_code": 805255, "glass_status": "standard", "density": "3.36 g/cm3", "coefficient_of_thermal_expansion_1": "8.8e-06 K-1", "coefficient_of_thermal_expansion_2": "1.09e-05 K-1", "ΔP_gF": 0.0132, "climatic_resistance": 1.0, "stain_resistance": 1.0, "acid_resistance": 1.0}
Dispersion formula 3, range 0.36501 1.01398 um, coefficients 3.1171483 -0.011616277 2 0.044864975 -2 0.0016588491 -4 2.5716854e-05 -6 1.4757657e-05 -8
wavelength (um)	k
0.360	1.2441E-05
0.370	4.3018E-06
0.380	1.5802E-06
0.390	6.9253E-07
0.400	3.6736E-07
0.420	1.6441E-07
0.440	1.1026E-07
0.460	8.5176E-08
0.480	6.9381E-08
0.500	5.6098E-08
0.550	3.0745E-08
0.600	3.8351E-08
0.650	3.6335E-08
0.700	3.9130E-08
0.750	2.9916E-08
0.780	1.8649E-08
0.800	1.2745E-08
0.830	6.6082E-09
0.850	1.3542E-08
0.900	1.4338E-08
0.950	2.2714E-08
1.000	2.3909E-08
1.050	2.5105E-08
1.060	2.5344E-08
1.100	1.7525E-08
1.200	1.9118E-08
1.300	2.0711E-08
1.400	2.2304E-08
1.500	4.7842E-08
1.550	3.7059E-08
