Material: glass / hoya / M-LAC130
Optical constants. HOYA Zemax catalog 2017-04-01 (obtained from http://www.hoya-opticalworld.com)
Comments: Glass for molded optics lens
Specs: {"n_is_absolute": false, "λ_is_vacuum": false, "temperature": "20.0 °C", "coefficients_of_thermal_dispersion": "3.06e-06 7.53e-09 -3.42e-11 7.88e-07 1.05e-09 4.45e-10", "n_d": 1.6935, "V_d": 53.2, "glass_code": 694532, "glass_status": "standard", "density": "3.52 g/cm3", "coefficient_of_thermal_expansion_1": "6.5e-06 K-1", "coefficient_of_thermal_expansion_2": "8.6e-06 K-1", "ΔP_gF": -0.0059, "climatic_resistance": 1.0, "stain_resistance": 4.0, "acid_resistance": 4.0}
Dispersion formula 3, range 0.36501 1.01398 um, coefficients 2.813412 -0.01332448 2 0.01927865 -2 0.0004124452 -4 -9.940432e-06 -6 9.622024e-07 -8
wavelength (um)	k
0.290	7.7365E-06
0.300	5.5945E-06
0.310	4.0202E-06
0.320	2.7397E-06
0.330	1.7837E-06
0.340	1.1079E-06
0.350	6.5301E-07
0.360	3.6622E-07
0.370	2.0104E-07
0.380	1.1401E-07
0.390	6.9040E-08
0.400	4.8108E-08
0.420	2.6846E-08
0.440	1.7551E-08
0.460	1.0998E-08
0.480	3.8216E-09
0.500	3.9809E-09
0.550	4.3790E-09
0.600	4.7770E-09
0.650	5.1751E-09
0.700	5.5732E-09
0.750	5.9713E-09
0.780	6.2101E-09
0.800	6.3694E-09
0.830	6.6082E-09
0.850	6.7675E-09
0.900	7.1656E-09
0.950	7.5636E-09
1.000	7.9617E-09
1.050	8.3598E-09
1.060	8.4394E-09
1.100	8.7579E-09
1.200	9.5541E-09
1.300	1.0350E-08
1.400	3.3473E-08
1.500	3.5864E-08
1.550	3.7059E-08
