Material: glass / hoya / M-PCD4
Optical constants. HOYA Zemax catalog 2017-04-01 (obtained from http://www.hoya-opticalworld.com)
Comments: Glass for molded optics lens
Specs: {"n_is_absolute": false, "λ_is_vacuum": false, "temperature": "20.0 °C", "coefficients_of_thermal_dispersion": "-1.08e-05 2.42e-09 1.57e-11 7.21e-07 4.29e-10 1.46e-09", "n_d": 1.61881, "V_d": 63.85, "glass_code": 619639, "glass_status": "standard", "density": "3.57 g/cm3", "coefficient_of_thermal_expansion_1": "8.7e-06 K-1", "coefficient_of_thermal_expansion_2": "1.3e-05 K-1", "ΔP_gF": 0.0084, "climatic_resistance": 1.0, "acid_resistance": 4.0}
Dispersion formula 3, range 0.36501 1.01398 um, coefficients 2.582335 -0.009952039 2 0.01329184 -2 0.0004550621 -4 -3.327132e-05 -6 1.730172e-06 -8
wavelength (um)	k
0.320	8.6107E-06
0.330	5.4607E-06
0.340	3.2575E-06
0.350	1.8160E-06
0.360	9.2918E-07
0.370	4.6469E-07
0.380	2.3902E-07
0.390	1.2669E-07
0.400	7.4066E-08
0.420	4.0350E-08
0.440	3.1655E-08
0.460	2.2030E-08
0.480	1.5310E-08
0.500	7.9657E-09
0.550	4.3790E-09
0.600	9.5589E-09
0.650	1.5541E-08
0.700	2.2326E-08
0.750	2.3921E-08
0.780	3.1113E-08
0.800	2.5516E-08
0.830	1.9845E-08
0.850	2.7111E-08
0.900	2.1518E-08
0.950	1.5135E-08
1.000	1.5931E-08
1.050	1.6728E-08
1.060	1.6887E-08
1.100	8.7579E-09
1.200	9.5541E-09
1.300	1.0350E-08
1.400	2.2304E-08
1.500	3.5864E-08
1.550	3.7059E-08
