Material: glass / hoya / MP-BACD12
Optical constants. HOYA Zemax catalog 2017-04-01 (obtained from http://www.hoya-opticalworld.com)
Comments: Preforms for Precision molding
Specs: {"n_is_absolute": false, "λ_is_vacuum": false, "temperature": "20.0 °C", "coefficients_of_thermal_dispersion": "3.36e-06 1.02e-08 -4.81e-11 6.1e-07 6.81e-10 4.77e-09", "n_d": 1.58313, "V_d": 59.46, "glass_code": 583595, "glass_status": "standard", "density": "3.01 g/cm3", "coefficient_of_thermal_expansion_1": "6.9e-06 K-1", "coefficient_of_thermal_expansion_2": "9e-06 K-1", "ΔP_gF": -0.0008, "climatic_resistance": 1.0, "stain_resistance": 3.0, "acid_resistance": 3.0}
Dispersion formula 3, range 0.36501 1.01398 um, coefficients 2.468781 -0.01062639 2 0.01325184 -2 0.0004048612 -4 -2.974799e-05 -6 1.825884e-06 -8
wavelength (um)	k
0.280	8.1321E-06
0.290	5.6088E-06
0.300	3.6147E-06
0.310	2.1815E-06
0.320	1.2504E-06
0.330	6.9319E-07
0.340	3.7990E-07
0.350	2.0512E-07
0.360	1.0503E-07
0.370	5.6481E-08
0.380	3.6507E-08
0.390	2.1801E-08
0.400	1.2758E-08
0.420	1.0042E-08
0.440	1.4034E-08
0.460	7.3285E-09
0.480	3.8216E-09
0.500	3.9809E-09
0.550	4.3790E-09
0.600	4.7770E-09
0.650	5.1751E-09
0.700	5.5732E-09
0.750	1.1949E-08
0.780	2.4878E-08
0.800	1.9127E-08
0.830	2.6473E-08
0.850	2.7111E-08
0.900	3.5900E-08
0.950	3.7894E-08
1.000	3.9889E-08
1.050	3.3490E-08
1.060	3.3809E-08
1.100	3.5084E-08
1.200	2.8691E-08
1.300	3.1082E-08
1.400	4.4653E-08
1.500	4.7842E-08
1.550	4.9437E-08
