Material: glass / hoya / MP-TAF31-15
Optical constants. HOYA Zemax catalog 2017-04-01 (obtained from http://www.hoya-opticalworld.com)
Comments: Preforms for Precision molding
Specs: {"n_is_absolute": false, "λ_is_vacuum": false, "temperature": "20.0 °C", "coefficients_of_thermal_dispersion": "7.66812e-06 0.0 0.0 0.0 0.0 0.0", "n_d": 1.80154, "V_d": 45.46, "glass_code": 802455, "glass_status": "standard", "density": "4.84 g/cm3", "coefficient_of_thermal_expansion_1": "6.2e-06 K-1", "coefficient_of_thermal_expansion_2": "7.7e-06 K-1", "ΔP_gF": -0.0084, "climatic_resistance": 1.0, "stain_resistance": 3.0, "acid_resistance": 3.0}
Dispersion formula 3, range 0.36501 1.01398 um, coefficients 3.164475 -0.013801295 2 0.027926276 -2 0.00057403 -4 9.8223773e-07 -6 1.3284244e-06 -8
wavelength (um)	k
0.290	7.9433E-06
0.300	6.2813E-06
0.310	5.0713E-06
0.320	3.4500E-06
0.330	2.3478E-06
0.340	1.5930E-06
0.350	1.0335E-06
0.360	6.3568E-07
0.370	3.8980E-07
0.380	2.4557E-07
0.390	1.6573E-07
0.400	1.1671E-07
0.420	7.0935E-08
0.440	4.9366E-08
0.460	3.3094E-08
0.480	2.2987E-08
0.500	7.9657E-09
0.550	4.3790E-09
0.600	4.7770E-09
0.650	5.1751E-09
0.700	5.5732E-09
0.750	2.9916E-08
0.780	3.1113E-08
0.800	2.5516E-08
0.830	1.3223E-08
0.850	2.0323E-08
0.900	2.1518E-08
0.950	1.5135E-08
1.000	1.5931E-08
1.050	1.6728E-08
1.060	1.6887E-08
1.100	1.7525E-08
1.200	9.5541E-09
1.300	1.0350E-08
1.400	1.1146E-08
1.500	1.1943E-08
1.550	1.2341E-08
