Material: glass / hoya / M-NBFD10
Optical constants. HOYA Zemax catalog 2017-04-01 (obtained from http://www.hoya-opticalworld.com)
Comments: Glass for molded optics lens
Specs: {"n_is_absolute": false, "λ_is_vacuum": false, "temperature": "20.0 °C", "coefficients_of_thermal_dispersion": "8.48661e-06 0.0 0.0 0.0 0.0 0.0", "n_d": 1.83441, "V_d": 37.28, "glass_code": 834373, "glass_status": "standard", "density": "4.39 g/cm3", "coefficient_of_thermal_expansion_1": "6.1e-06 K-1", "coefficient_of_thermal_expansion_2": "7.7e-06 K-1", "ΔP_gF": -0.004, "climatic_resistance": 1.0, "stain_resistance": 3.0, "acid_resistance": 3.0}
Dispersion formula 3, range 0.36501 1.01398 um, coefficients 3.264623 -0.01581977 2 0.03225894 -2 0.001709312 -4 -0.0001081957 -6 1.058323e-05 -8
wavelength (um)	k
0.350	6.1732E-06
0.360	2.9189E-06
0.370	1.4894E-06
0.380	8.9016E-07
0.390	5.8952E-07
0.400	4.2141E-07
0.420	2.4615E-07
0.440	1.6122E-07
0.460	1.1150E-07
0.480	7.3273E-08
0.500	4.4010E-08
0.550	1.3150E-08
0.600	4.7770E-09
0.650	5.1751E-09
0.700	5.5732E-09
0.750	1.7932E-08
0.780	1.2427E-08
0.800	1.9127E-08
0.830	1.3223E-08
0.850	1.3542E-08
0.900	2.1518E-08
0.950	2.2714E-08
1.000	2.3909E-08
1.050	1.6728E-08
1.060	1.6887E-08
1.100	1.7525E-08
1.200	9.5541E-09
1.300	1.0350E-08
1.400	2.2304E-08
1.500	2.3897E-08
1.550	2.4694E-08
