Material: glass / hoya / MC-FDS2
Optical constants. HOYA Zemax catalog 2017-04-01 (obtained from http://www.hoya-opticalworld.com)
Comments: Preforms for Precision molding
Specs: {"n_is_absolute": false, "λ_is_vacuum": false, "temperature": "20.0 °C", "coefficients_of_thermal_dispersion": "2.17e-07 1.14e-08 -3.07e-11 1.84e-06 2.48e-09 0.308", "n_d": 2.00178, "V_d": 19.32, "glass_status": "standard", "density": "5.09 g/cm3", "coefficient_of_thermal_expansion_1": "7.9e-06 K-1", "coefficient_of_thermal_expansion_2": "1.01e-05 K-1", "ΔP_gF": 0.0312, "climatic_resistance": 1.0, "stain_resistance": 1.0, "acid_resistance": 1.0}
Dispersion formula 3, range 0.36501 1.01398 um, coefficients 3.771581 -0.020445364 2 0.063942579 -2 0.008354547 -4 -0.00082031984 -6 0.00010279507 -8
wavelength (um)	k
0.400	1.0956E-05
0.420	2.6172E-06
0.440	8.9700E-07
0.460	4.5134E-07
0.480	2.8542E-07
0.500	1.8737E-07
0.550	7.0594E-08
0.600	3.3540E-08
0.650	4.1547E-08
0.700	2.7922E-08
0.750	1.1949E-08
0.780	2.4878E-08
0.800	1.2745E-08
0.830	2.6473E-08
0.850	1.3542E-08
0.900	1.4338E-08
0.950	1.5135E-08
1.000	1.5931E-08
1.050	1.6728E-08
1.060	3.3809E-08
1.100	1.7525E-08
1.200	9.5541E-09
1.300	2.0711E-08
1.400	3.3473E-08
1.500	7.1835E-08
1.550	6.1827E-08
