Material: glass / hoya / NBFD15
Optical constants. HOYA Zemax catalog 2017-04-01 (obtained from http://www.hoya-opticalworld.com)
Comments: General glass Type
Specs: {"n_is_absolute": false, "λ_is_vacuum": false, "temperature": "20.0 °C", "coefficients_of_thermal_dispersion": "2.02e-06 7.39e-09 -1.85e-11 7.78e-07 6.81e-10 0.268", "n_d": 1.8061, "V_d": 33.27, "glass_code": 806333, "density": "3.47 g/cm3", "coefficient_of_thermal_expansion_1": "7.1e-06 K-1", "coefficient_of_thermal_expansion_2": "9.1e-06 K-1", "climatic_resistance": 1.0, "stain_resistance": 1.0, "acid_resistance": 1.0}
Dispersion formula 3, range 0.36501 1.01398 um, coefficients 3.1540011 -0.013256753 2 0.034103312 -2 0.0018472167 -4 -0.00010807332 -6 1.2975901e-05 -8
wavelength (um)	k
0.350	9.8609E-06
0.360	3.7088E-06
0.370	1.4943E-06
0.380	7.3587E-07
0.390	4.2864E-07
0.400	2.8624E-07
0.420	1.7496E-07
0.440	1.2838E-07
0.460	1.0396E-07
0.480	7.3273E-08
0.500	5.6098E-08
0.550	1.7542E-08
0.600	1.9137E-08
0.650	2.0732E-08
0.700	2.2326E-08
0.750	2.3921E-08
0.780	1.8649E-08
0.800	2.5516E-08
0.830	2.6473E-08
0.850	1.3542E-08
0.900	1.4338E-08
0.950	7.5636E-09
1.000	7.9617E-09
1.050	8.3598E-09
1.060	8.4394E-09
1.100	8.7579E-09
1.200	9.5541E-09
1.300	1.0350E-08
1.400	2.2304E-08
1.500	2.3897E-08
1.550	1.2341E-08
