Material: main / C / Djurisic-o
Optical constants. A. B. Djurišić and E. H. Li. Optical properties of graphite, J. Appl. Phys. 85, 7404-7410 (1999)[Calculation script (Python)]
Comments: Graphite. Ordinary ray (o). Critical analysis and fit of the experimental data from several sources to a modified Lorentz-Drude (LD) model.
Specs: {"n_is_absolute": true, "λ_is_vacuum": true}
wavelength (um)	n	k
3.0996e-02	6.6638e-01	9.9024e-02
3.1089e-02	6.6698e-01	1.0145e-01
3.1183e-02	6.6768e-01	1.0370e-01
3.1277e-02	6.6846e-01	1.0578e-01
3.1372e-02	6.6930e-01	1.0766e-01
3.1467e-02	6.7018e-01	1.0936e-01
3.1563e-02	6.7107e-01	1.1087e-01
3.1660e-02	6.7196e-01	1.1219e-01
3.1757e-02	6.7283e-01	1.1333e-01
3.1854e-02	6.7366e-01	1.1428e-01
3.1953e-02	6.7443e-01	1.1507e-01
3.2052e-02	6.7512e-01	1.1569e-01
3.2151e-02	6.7573e-01	1.1615e-01
3.2251e-02	6.7624e-01	1.1648e-01
3.2352e-02	6.7664e-01	1.1668e-01
3.2454e-02	6.7692e-01	1.1675e-01
3.2556e-02	6.7707e-01	1.1672e-01
3.2658e-02	6.7710e-01	1.1660e-01
3.2762e-02	6.7698e-01	1.1640e-01
3.2866e-02	6.7673e-01	1.1612e-01
3.2970e-02	6.7634e-01	1.1579e-01
3.3076e-02	6.7580e-01	1.1541e-01
3.3182e-02	6.7512e-01	1.1499e-01
3.3288e-02	6.7430e-01	1.1455e-01
3.3396e-02	6.7334e-01	1.1408e-01
3.3504e-02	6.7223e-01	1.1361e-01
3.3613e-02	6.7099e-01	1.1313e-01
3.3722e-02	6.6961e-01	1.1265e-01
3.3832e-02	6.6810e-01	1.1219e-01
3.3943e-02	6.6646e-01	1.1174e-01
3.4055e-02	6.6468e-01	1.1131e-01
3.4167e-02	6.6278e-01	1.1092e-01
3.4280e-02	6.6076e-01	1.1055e-01
3.4394e-02	6.5861e-01	1.1022e-01
3.4509e-02	6.5635e-01	1.0993e-01
3.4624e-02	6.5396e-01	1.0968e-01
3.4741e-02	6.5147e-01	1.0948e-01
3.4857e-02	6.4886e-01	1.0933e-01
3.4975e-02	6.4613e-01	1.0924e-01
3.5094e-02	6.4330e-01	1.0920e-01
3.5213e-02	6.4037e-01	1.0921e-01
3.5333e-02	6.3732e-01	1.0929e-01
3.5454e-02	6.3417e-01	1.0944e-01
3.5576e-02	6.3092e-01	1.0965e-01
3.5699e-02	6.2756e-01	1.0993e-01
3.5822e-02	6.2410e-01	1.1028e-01
3.5947e-02	6.2054e-01	1.1071e-01
3.6072e-02	6.1688e-01	1.1121e-01
3.6198e-02	6.1312e-01	1.1180e-01
3.6325e-02	6.0926e-01	1.1246e-01
3.6453e-02	6.0530e-01	1.1322e-01
3.6582e-02	6.0124e-01	1.1406e-01
3.6712e-02	5.9708e-01	1.1499e-01
3.6842e-02	5.9282e-01	1.1603e-01
3.6974e-02	5.8846e-01	1.1716e-01
3.7106e-02	5.8400e-01	1.1840e-01
3.7240e-02	5.7944e-01	1.1974e-01
3.7374e-02	5.7479e-01	1.2120e-01
3.7510e-02	5.7003e-01	1.2278e-01
3.7646e-02	5.6518e-01	1.2448e-01
3.7783e-02	5.6022e-01	1.2631e-01
3.7922e-02	5.5517e-01	1.2828e-01
3.8061e-02	5.5002e-01	1.3039e-01
3.8202e-02	5.4477e-01	1.3264e-01
3.8343e-02	5.3943e-01	1.3506e-01
3.8486e-02	5.3400e-01	1.3763e-01
3.8629e-02	5.2847e-01	1.4038e-01
3.8774e-02	5.2285e-01	1.4331e-01
3.8920e-02	5.1715e-01	1.4643e-01
3.9067e-02	5.1137e-01	1.4975e-01
3.9215e-02	5.0550e-01	1.5328e-01
3.9364e-02	4.9957e-01	1.5702e-01
3.9514e-02	4.9357e-01	1.6100e-01
3.9665e-02	4.8751e-01	1.6521e-01
3.9818e-02	4.8140e-01	1.6968e-01
3.9972e-02	4.7524e-01	1.7441e-01
4.0127e-02	4.6907e-01	1.7942e-01
4.0283e-02	4.6287e-01	1.8470e-01
4.0440e-02	4.5668e-01	1.9029e-01
4.0599e-02	4.5050e-01	1.9617e-01
4.0759e-02	4.4435e-01	2.0237e-01
4.0920e-02	4.3826e-01	2.0889e-01
4.1082e-02	4.3224e-01	2.1573e-01
4.1246e-02	4.2632e-01	2.2290e-01
4.1411e-02	4.2052e-01	2.3039e-01
4.1577e-02	4.1487e-01	2.3821e-01
4.1745e-02	4.0940e-01	2.4635e-01
4.1914e-02	4.0412e-01	2.5481e-01
4.2084e-02	3.9906e-01	2.6356e-01
4.2256e-02	3.9424e-01	2.7260e-01
4.2429e-02	3.8970e-01	2.8191e-01
4.2604e-02	3.8544e-01	2.9146e-01
4.2780e-02	3.8149e-01	3.0125e-01
4.2957e-02	3.7786e-01	3.1123e-01
4.3136e-02	3.7455e-01	3.2139e-01
4.3317e-02	3.7159e-01	3.3170e-01
4.3499e-02	3.6896e-01	3.4214e-01
4.3682e-02	3.6668e-01	3.5267e-01
4.3867e-02	3.6475e-01	3.6327e-01
4.4054e-02	3.6315e-01	3.7392e-01
4.4242e-02	3.6188e-01	3.8459e-01
4.4432e-02	3.6094e-01	3.9526e-01
4.4624e-02	3.6031e-01	4.0590e-01
4.4817e-02	3.5999e-01	4.1651e-01
4.5012e-02	3.5994e-01	4.2706e-01
4.5208e-02	3.6017e-01	4.3753e-01
4.5406e-02	3.6066e-01	4.4791e-01
4.5606e-02	3.6138e-01	4.5819e-01
4.5808e-02	3.6232e-01	4.6836e-01
4.6012e-02	3.6347e-01	4.7841e-01
4.6217e-02	3.6479e-01	4.8833e-01
4.6424e-02	3.6627e-01	4.9812e-01
4.6634e-02	3.6790e-01	5.0777e-01
4.6845e-02	3.6964e-01	5.1728e-01
4.7057e-02	3.7148e-01	5.2666e-01
4.7272e-02	3.7339e-01	5.3591e-01
4.7489e-02	3.7536e-01	5.4503e-01
4.7708e-02	3.7737e-01	5.5404e-01
4.7929e-02	3.7939e-01	5.6294e-01
4.8152e-02	3.8141e-01	5.7176e-01
4.8377e-02	3.8341e-01	5.8049e-01
4.8604e-02	3.8538e-01	5.8918e-01
4.8833e-02	3.8730e-01	5.9782e-01
4.9065e-02	3.8917e-01	6.0646e-01
4.9298e-02	3.9099e-01	6.1510e-01
4.9534e-02	3.9274e-01	6.2379e-01
4.9772e-02	3.9443e-01	6.3253e-01
5.0013e-02	3.9606e-01	6.4136e-01
5.0256e-02	3.9765e-01	6.5029e-01
5.0501e-02	3.9920e-01	6.5936e-01
5.0748e-02	4.0074e-01	6.6858e-01
5.0998e-02	4.0227e-01	6.7798e-01
5.1251e-02	4.0383e-01	6.8755e-01
5.1506e-02	4.0542e-01	6.9732e-01
5.1763e-02	4.0708e-01	7.0729e-01
5.2023e-02	4.0883e-01	7.1746e-01
5.2286e-02	4.1069e-01	7.2784e-01
5.2551e-02	4.1269e-01	7.3843e-01
5.2820e-02	4.1484e-01	7.4921e-01
5.3090e-02	4.1717e-01	7.6017e-01
5.3364e-02	4.1969e-01	7.7131e-01
5.3641e-02	4.2241e-01	7.8261e-01
5.3920e-02	4.2536e-01	7.9406e-01
5.4202e-02	4.2853e-01	8.0564e-01
5.4488e-02	4.3195e-01	8.1733e-01
5.4776e-02	4.3560e-01	8.2912e-01
5.5067e-02	4.3949e-01	8.4099e-01
5.5362e-02	4.4363e-01	8.5293e-01
5.5659e-02	4.4800e-01	8.6492e-01
5.5960e-02	4.5261e-01	8.7695e-01
5.6264e-02	4.5746e-01	8.8900e-01
5.6572e-02	4.6252e-01	9.0107e-01
5.6883e-02	4.6780e-01	9.1315e-01
5.7197e-02	4.7328e-01	9.2522e-01
5.7515e-02	4.7895e-01	9.3728e-01
5.7836e-02	4.8482e-01	9.4933e-01
5.8161e-02	4.9085e-01	9.6137e-01
5.8489e-02	4.9705e-01	9.7339e-01
5.8822e-02	5.0340e-01	9.8539e-01
5.9158e-02	5.0988e-01	9.9738e-01
5.9498e-02	5.1650e-01	1.0094e+00
5.9842e-02	5.2323e-01	1.0213e+00
6.0190e-02	5.3007e-01	1.0333e+00
6.0542e-02	5.3701e-01	1.0453e+00
6.0898e-02	5.4404e-01	1.0573e+00
6.1258e-02	5.5114e-01	1.0693e+00
6.1623e-02	5.5832e-01	1.0814e+00
6.1992e-02	5.6556e-01	1.0935e+00
6.2365e-02	5.7285e-01	1.1057e+00
6.2743e-02	5.8020e-01	1.1180e+00
6.3126e-02	5.8759e-01	1.1304e+00
6.3513e-02	5.9502e-01	1.1429e+00
6.3905e-02	6.0249e-01	1.1555e+00
6.4302e-02	6.1000e-01	1.1684e+00
6.4704e-02	6.1754e-01	1.1814e+00
6.5111e-02	6.2512e-01	1.1947e+00
6.5523e-02	6.3275e-01	1.2082e+00
6.5940e-02	6.4042e-01	1.2220e+00
6.6363e-02	6.4815e-01	1.2362e+00
6.6791e-02	6.5594e-01	1.2507e+00
6.7225e-02	6.6381e-01	1.2656e+00
6.7664e-02	6.7177e-01	1.2810e+00
6.8109e-02	6.7984e-01	1.2968e+00
6.8560e-02	6.8805e-01	1.3132e+00
6.9017e-02	6.9641e-01	1.3303e+00
6.9481e-02	7.0498e-01	1.3479e+00
6.9950e-02	7.1377e-01	1.3663e+00
7.0426e-02	7.2285e-01	1.3855e+00
7.0908e-02	7.3227e-01	1.4056e+00
7.1397e-02	7.4209e-01	1.4267e+00
7.1893e-02	7.5240e-01	1.4488e+00
7.2396e-02	7.6330e-01	1.4720e+00
7.2906e-02	7.7488e-01	1.4965e+00
7.3423e-02	7.8730e-01	1.5223e+00
7.3947e-02	8.0070e-01	1.5497e+00
7.4479e-02	8.1530e-01	1.5786e+00
7.5019e-02	8.3131e-01	1.6093e+00
7.5566e-02	8.4901e-01	1.6419e+00
7.6122e-02	8.6876e-01	1.6764e+00
7.6686e-02	8.9094e-01	1.7131e+00
7.7258e-02	9.1605e-01	1.7520e+00
7.7839e-02	9.4469e-01	1.7932e+00
7.8429e-02	9.7756e-01	1.8367e+00
7.9027e-02	1.0155e+00	1.8824e+00
7.9635e-02	1.0595e+00	1.9300e+00
8.0253e-02	1.1109e+00	1.9792e+00
8.0880e-02	1.1708e+00	2.0292e+00
8.1516e-02	1.2409e+00	2.0787e+00
8.2163e-02	1.3226e+00	2.1259e+00
8.2821e-02	1.4173e+00	2.1682e+00
8.3489e-02	1.5258e+00	2.2020e+00
8.4167e-02	1.6480e+00	2.2226e+00
8.4857e-02	1.7817e+00	2.2247e+00
8.5558e-02	1.9226e+00	2.2032e+00
8.6271e-02	2.0632e+00	2.1542e+00
8.6996e-02	2.1942e+00	2.0772e+00
8.7734e-02	2.3055e+00	1.9758e+00
8.8483e-02	2.3882e+00	1.8581e+00
8.9246e-02	2.4357e+00	1.7377e+00
9.0022e-02	2.4661e+00	1.6542e+00
9.0812e-02	2.5714e+00	1.5384e+00
9.1616e-02	2.6182e+00	1.3965e+00
9.2434e-02	2.6485e+00	1.2097e+00
9.3266e-02	2.5768e+00	1.0930e+00
9.4114e-02	2.5248e+00	1.0213e+00
9.4978e-02	2.4797e+00	9.5832e-01
9.5857e-02	2.4374e+00	9.0266e-01
9.6753e-02	2.3973e+00	8.5376e-01
9.7666e-02	2.3592e+00	8.1081e-01
9.8596e-02	2.3231e+00	7.7293e-01
9.9544e-02	2.2889e+00	7.3933e-01
1.0051e-01	2.2566e+00	7.0931e-01
1.0150e-01	2.2261e+00	6.8228e-01
1.0250e-01	2.1972e+00	6.5775e-01
1.0353e-01	2.1697e+00	6.3529e-01
1.0457e-01	2.1435e+00	6.1459e-01
1.0564e-01	2.1185e+00	5.9535e-01
1.0673e-01	2.0944e+00	5.7735e-01
1.0784e-01	2.0711e+00	5.6041e-01
1.0897e-01	2.0486e+00	5.4437e-01
1.1013e-01	2.0266e+00	5.2914e-01
1.1132e-01	2.0050e+00	5.1459e-01
1.1253e-01	1.9837e+00	5.0067e-01
1.1376e-01	1.9626e+00	4.8731e-01
1.1503e-01	1.9416e+00	4.7448e-01
1.1632e-01	1.9207e+00	4.6213e-01
1.1764e-01	1.8996e+00	4.5025e-01
1.1899e-01	1.8784e+00	4.3883e-01
1.2038e-01	1.8569e+00	4.2785e-01
1.2179e-01	1.8351e+00	4.1732e-01
1.2324e-01	1.8128e+00	4.0725e-01
1.2473e-01	1.7901e+00	3.9764e-01
1.2625e-01	1.7668e+00	3.8853e-01
1.2781e-01	1.7429e+00	3.7992e-01
1.2941e-01	1.7182e+00	3.7187e-01
1.3104e-01	1.6927e+00	3.6439e-01
1.3272e-01	1.6663e+00	3.5756e-01
1.3445e-01	1.6390e+00	3.5141e-01
1.3622e-01	1.6105e+00	3.4604e-01
1.3803e-01	1.5808e+00	3.4153e-01
1.3990e-01	1.5498e+00	3.3798e-01
1.4181e-01	1.5173e+00	3.3555e-01
1.4378e-01	1.4832e+00	3.3440e-01
1.4581e-01	1.4473e+00	3.3474e-01
1.4789e-01	1.4096e+00	3.3683e-01
1.5004e-01	1.3697e+00	3.4101e-01
1.5224e-01	1.3276e+00	3.4770e-01
1.5451e-01	1.2831e+00	3.5743e-01
1.5685e-01	1.2361e+00	3.7086e-01
1.5927e-01	1.1865e+00	3.8884e-01
1.6176e-01	1.1346e+00	4.1238e-01
1.6432e-01	1.0807e+00	4.4273e-01
1.6697e-01	1.0257e+00	4.8126e-01
1.6971e-01	9.7110e-01	5.2932e-01
1.7254e-01	9.1909e-01	5.8787e-01
1.7546e-01	8.7244e-01	6.5704e-01
1.7849e-01	8.3393e-01	7.3576e-01
1.8162e-01	8.0565e-01	8.2189e-01
1.8486e-01	7.8853e-01	9.1285e-01
1.8822e-01	7.8246e-01	1.0063e+00
1.9171e-01	7.8667e-01	1.1006e+00
1.9533e-01	8.0021e-01	1.1947e+00
1.9908e-01	8.2219e-01	1.2882e+00
2.0299e-01	8.5195e-01	1.3809e+00
2.0705e-01	8.8917e-01	1.4731e+00
2.1127e-01	9.3392e-01	1.5652e+00
2.1567e-01	9.8672e-01	1.6576e+00
2.2026e-01	1.0486e+00	1.7505e+00
2.2505e-01	1.1211e+00	1.8439e+00
2.3005e-01	1.2062e+00	1.9372e+00
2.3528e-01	1.3064e+00	2.0289e+00
2.4075e-01	1.4244e+00	2.1162e+00
2.4648e-01	1.5626e+00	2.1947e+00
2.5249e-01	1.7224e+00	2.2581e+00
2.5881e-01	1.9030e+00	2.2978e+00
2.6544e-01	2.0992e+00	2.3041e+00
2.7243e-01	2.3003e+00	2.2683e+00
2.7979e-01	2.4905e+00	2.1871e+00
2.8756e-01	2.6519e+00	2.0656e+00
2.9578e-01	2.7712e+00	1.9176e+00
3.0447e-01	2.8436e+00	1.7616e+00
3.1370e-01	2.8732e+00	1.6142e+00
3.2350e-01	2.8697e+00	1.4868e+00
3.3394e-01	2.8441e+00	1.3848e+00
3.4507e-01	2.8062e+00	1.3090e+00
3.5697e-01	2.7635e+00	1.2578e+00
3.6971e-01	2.7216e+00	1.2283e+00
3.8341e-01	2.6841e+00	1.2174e+00
3.9815e-01	2.6536e+00	1.2220e+00
4.1408e-01	2.6318e+00	1.2393e+00
4.3133e-01	2.6196e+00	1.2665e+00
4.5008e-01	2.6176e+00	1.3013e+00
4.7054e-01	2.6260e+00	1.3416e+00
4.9294e-01	2.6444e+00	1.3853e+00
5.1759e-01	2.6724e+00	1.4308e+00
5.4482e-01	2.7090e+00	1.4767e+00
5.7509e-01	2.7528e+00	1.5220e+00
6.0891e-01	2.8023e+00	1.5663e+00
6.4697e-01	2.8558e+00	1.6101e+00
6.9009e-01	2.9116e+00	1.6548e+00
7.3938e-01	2.9687e+00	1.7027e+00
7.9624e-01	3.0268e+00	1.7573e+00
8.6258e-01	3.0872e+00	1.8226e+00
9.4099e-01	3.1522e+00	1.9032e+00
1.0351e+00	3.2259e+00	2.0038e+00
1.1500e+00	3.3140e+00	2.1297e+00
1.2938e+00	3.4239e+00	2.2870e+00
1.4785e+00	3.5659e+00	2.4838e+00
1.7249e+00	3.7547e+00	2.7326e+00
2.0697e+00	4.0144e+00	3.0534e+00
2.5869e+00	4.3881e+00	3.4830e+00
3.4486e+00	4.9676e+00	4.0961e+00
5.1712e+00	5.9969e+00	5.0772e+00
1.0332e+01	8.4990e+00	7.0568e+00
