Material: glass / hoya / LBC3N
Optical constants. HOYA Zemax catalog 2017-04-01 (obtained from http://www.hoya-opticalworld.com)
Comments: Not in a position to accept new order because of discontinuation.
Specs: {"n_is_absolute": false, "λ_is_vacuum": false, "temperature": "20.0 °C", "coefficients_of_thermal_dispersion": "-1.94562e-05 0.0 0.0 0.0 0.0 0.0", "n_d": 1.60625, "V_d": 63.71, "glass_code": 606637, "glass_status": "special", "density": "3.84 g/cm3", "coefficient_of_thermal_expansion_1": "1.24e-05 K-1", "coefficient_of_thermal_expansion_2": "1.4e-05 K-1", "ΔP_gF": 0.0108, "climatic_resistance": 1.0, "stain_resistance": 1.0, "acid_resistance": 3.0}
Dispersion formula 3, range 0.36501 1.01398 um, coefficients 2.5388484 -0.0066855865 2 0.015111456 -2 -0.00015247241 -4 4.8340116e-05 -6 -2.4061785e-06 -8
wavelength (um)	k
0.280	7.6694E-06
0.290	5.0317E-06
0.300	3.4471E-06
0.310	2.3229E-06
0.320	1.5224E-06
0.330	9.4416E-07
0.340	5.7013E-07
0.350	3.3712E-07
0.360	1.8031E-07
0.370	1.1713E-07
0.380	8.8991E-08
0.390	5.6372E-08
0.400	4.4878E-08
0.420	4.0350E-08
0.440	4.2271E-08
0.460	3.3094E-08
0.480	3.0681E-08
0.500	1.9944E-08
0.550	1.3150E-08
0.600	9.5589E-09
0.650	2.0732E-08
0.700	2.2326E-08
0.750	5.9713E-09
0.780	6.2101E-09
0.800	6.3694E-09
0.830	6.6082E-09
0.850	6.7675E-09
0.900	7.1656E-09
0.950	7.5636E-09
1.000	7.9617E-09
1.050	8.3598E-09
1.060	8.4394E-09
1.100	8.7579E-09
1.200	9.5541E-09
1.300	1.0350E-08
1.400	1.1146E-08
1.500	5.9833E-08
1.550	8.6645E-08
