Material: glass / hoya / M-TAF401
Optical constants. HOYA Zemax catalog 2017-04-01 (obtained from http://www.hoya-opticalworld.com)
Comments: Glass for molded optics lens
Specs: {"n_is_absolute": false, "λ_is_vacuum": false, "temperature": "20.0 °C", "coefficients_of_thermal_dispersion": "8.39412e-06 0.0 0.0 0.0 0.0 0.0", "n_d": 1.77377, "V_d": 47.17, "glass_code": 774472, "glass_status": "standard", "density": "4.62 g/cm3", "coefficient_of_thermal_expansion_1": "6.1e-06 K-1", "coefficient_of_thermal_expansion_2": "7.7e-06 K-1", "ΔP_gF": -0.0078, "climatic_resistance": 1.0, "stain_resistance": 2.0, "acid_resistance": 3.0}
Dispersion formula 3, range 0.36501 1.01398 um, coefficients 3.07279 -0.01366385 2 0.02527346 -2 0.000612182 -4 -1.147045e-05 -6 1.543e-06 -8
wavelength (um)	k
0.310	1.0911E-05
0.320	8.1968E-06
0.330	4.2265E-06
0.340	2.1545E-06
0.350	1.1447E-06
0.360	6.2497E-07
0.370	3.5638E-07
0.380	2.2596E-07
0.390	1.5266E-07
0.400	1.1011E-07
0.420	7.4350E-08
0.440	5.2919E-08
0.460	4.0489E-08
0.480	3.0681E-08
0.500	2.3945E-08
0.550	1.7542E-08
0.600	2.3933E-08
0.650	2.0732E-08
0.700	1.6736E-08
0.750	4.1925E-08
0.780	4.3602E-08
0.800	5.1134E-08
0.830	5.3052E-08
0.850	4.7515E-08
0.900	4.3101E-08
0.950	3.7894E-08
1.000	4.7890E-08
1.050	4.1883E-08
1.060	4.2282E-08
1.100	4.3877E-08
1.200	3.8274E-08
1.300	4.1463E-08
1.400	5.5844E-08
1.500	5.9833E-08
1.550	7.4230E-08
