Material: glass / sumita / K-LaFK55
Optical constants. SUMITA Zemax catalog 2017-02-02 (obtained from http://www.sumita-opt.co.jp)See also SUMITA optical glass data book
Specs: {"n_is_absolute": false, "λ_is_vacuum": false, "temperature": "20.0 °C", "coefficients_of_thermal_dispersion": "-2.43e-06 1.08e-08 -8.1e-11 5.36e-07 6.73e-10 0.111", "n_d": 1.694, "V_d": 56.3, "glass_code": 694563, "density": "4.34 g/cm3", "coefficient_of_thermal_expansion_1": "7.3e-06 K-1", "coefficient_of_thermal_expansion_2": "9.1e-06 K-1", "ΔP_gF": -0.0045, "climatic_resistance": 1.0, "acid_resistance": 4.0}
Dispersion formula 3, range 0.36 1.55 um, coefficients 2.8185206 -0.013230603 2 0.018037587 -2 0.00045589602 -4 -2.131672e-05 -6 1.5724724e-06 -8
wavelength (um)	k
0.280	1.0049E-05
0.290	7.0076E-06
0.300	5.3805E-06
0.310	4.4599E-06
0.320	2.5113E-06
0.330	1.5939E-06
0.340	9.6890E-07
0.350	5.5953E-07
0.360	3.0821E-07
0.370	1.6968E-07
0.380	9.2107E-08
0.390	5.6372E-08
0.400	2.8778E-08
0.420	6.6912E-09
0.440	7.0098E-09
0.460	7.3285E-09
0.480	7.6471E-09
0.500	7.9657E-09
0.550	8.7623E-09
0.600	9.5589E-09
0.650	1.0355E-08
0.700	1.1152E-08
0.800	1.9127E-08
1.060	4.2282E-08
1.500	9.5877E-08
2.000	5.3407E-07
