Material: glass / sumita / K-LaK7
Optical constants. SUMITA Zemax catalog 2017-02-02 (obtained from http://www.sumita-opt.co.jp)See also SUMITA optical glass data book
Specs: {"n_is_absolute": false, "λ_is_vacuum": false, "temperature": "20.0 °C", "coefficients_of_thermal_dispersion": "-2.13e-06 1.62e-08 -5.04e-11 3.71e-07 6.15e-10 0.214", "n_d": 1.6516, "V_d": 58.3, "glass_code": 652583, "density": "3.76 g/cm3", "coefficient_of_thermal_expansion_1": "6.8e-06 K-1", "coefficient_of_thermal_expansion_2": "8.4e-06 K-1", "ΔP_gF": -0.0021, "climatic_resistance": 2.0, "acid_resistance": 5.0}
Dispersion formula 3, range 0.36 1.55 um, coefficients 2.6835737 -0.012086498 2 0.015193489 -2 0.00064847987 -4 -5.2423893e-05 -6 2.8301452e-06 -8
wavelength (um)	k
0.290	1.0628E-05
0.300	6.4890E-06
0.310	4.0202E-06
0.320	2.5250E-06
0.330	1.5320E-06
0.340	9.2285E-07
0.350	5.5613E-07
0.360	3.3063E-07
0.370	2.0104E-07
0.380	1.3291E-07
0.390	9.1333E-08
0.400	7.0810E-08
0.420	5.0514E-08
0.440	4.2271E-08
0.460	3.6790E-08
0.480	3.0681E-08
0.500	2.3945E-08
0.550	2.6340E-08
0.600	2.8734E-08
0.650	3.1129E-08
0.700	1.6736E-08
0.800	1.2745E-08
1.060	1.6887E-08
1.500	3.5864E-08
2.000	4.6837E-07
