Material: glass / sumita / K-PG375
Optical constants. SUMITA Zemax catalog 2017-02-02 (obtained from http://www.sumita-opt.co.jp)See also SUMITA optical glass data book
Specs: {"n_is_absolute": false, "λ_is_vacuum": false, "temperature": "20.0 °C", "coefficients_of_thermal_dispersion": "-1.51e-05 1.45e-09 -9.02e-11 5.44e-07 3.99e-10 0.176", "n_d": 1.5425, "V_d": 62.9, "glass_code": 543629, "density": "2.9 g/cm3", "coefficient_of_thermal_expansion_1": "1.29e-05 K-1", "coefficient_of_thermal_expansion_2": "1.6e-05 K-1", "ΔP_gF": 0.0036, "climatic_resistance": 2.0, "acid_resistance": 3.0}
Dispersion formula 3, range 0.36 1.55 um, coefficients 2.345943 -0.0077317211 2 0.011783664 -2 0.00025239185 -4 -1.2352344e-05 -6 8.7540057e-07 -8
wavelength (um)	k
0.300	8.5360E-06
0.310	5.7810E-06
0.320	3.5920E-06
0.330	2.0507E-06
0.340	1.0435E-06
0.350	5.1226E-07
0.360	2.4511E-07
0.370	1.2019E-07
0.380	6.4179E-08
0.390	3.1191E-08
0.400	3.1991E-08
0.420	3.3591E-08
0.440	3.5190E-08
0.460	2.9402E-08
0.480	2.6832E-08
0.500	1.5947E-08
0.550	1.3150E-08
0.600	1.9137E-08
0.650	2.5928E-08
0.700	2.2326E-08
0.800	1.9127E-08
1.060	2.5344E-08
1.500	1.1997E-07
2.000	2.2898E-06
