Material: glass / sumita / K-PSK300(M)
Optical constants. SUMITA Zemax catalog 2017-02-02 (obtained from http://www.sumita-opt.co.jp)See also SUMITA optical glass data book
Specs: {"n_is_absolute": false, "λ_is_vacuum": false, "temperature": "20.0 °C", "coefficients_of_thermal_dispersion": "-1.33e-05 1.14e-08 -3e-11 4.03e-07 3.8e-10 0.173", "n_d": 1.5969, "V_d": 65.3, "glass_code": 600656, "density": "3.49 g/cm3", "coefficient_of_thermal_expansion_1": "1.05e-05 K-1", "coefficient_of_thermal_expansion_2": "1.28e-05 K-1", "ΔP_gF": 0.0067, "climatic_resistance": 2.0, "acid_resistance": 4.0}
Dispersion formula 3, range 0.36 1.55 um, coefficients 2.5141824 -0.0093945858 2 0.012823443 -2 0.00025005056 -4 -3.928511e-06 -6 4.4650519e-08 -8
wavelength (um)	k
0.280	1.0496E-05
0.290	8.2515E-06
0.300	6.1210E-06
0.310	4.2717E-06
0.320	2.5250E-06
0.330	1.4624E-06
0.340	8.1468E-07
0.350	4.5265E-07
0.360	2.6389E-07
0.370	1.5103E-07
0.380	1.0147E-07
0.390	8.4947E-08
0.400	6.1061E-08
0.420	9.4918E-08
0.440	8.1473E-08
0.460	7.3953E-08
0.480	4.9982E-08
0.500	4.4010E-08
0.550	2.1939E-08
0.600	3.3540E-08
0.650	4.1547E-08
0.700	5.0361E-08
0.800	5.7555E-08
1.060	4.2282E-08
1.500	1.0792E-07
2.000	1.2064E-06
