Material: glass / sumita / K-PSFn214(M)
Optical constants. SUMITA Zemax catalog 2017-02-02 (obtained from http://www.sumita-opt.co.jp)See also SUMITA optical glass data book
Specs: {"n_is_absolute": false, "λ_is_vacuum": false, "temperature": "20.0 °C", "coefficients_of_thermal_dispersion": "1.6e-05 2.83e-08 -1.6e-10 3.11e-06 2.04e-09 0.316", "n_d": 2.13909, "V_d": 17.7, "glass_code": 144178, "density": "7.06 g/cm3", "coefficient_of_thermal_expansion_1": "8.3e-06 K-1", "coefficient_of_thermal_expansion_2": "9.8e-06 K-1", "ΔP_gF": 0.0457, "climatic_resistance": 1.0, "acid_resistance": 3.0}
Dispersion formula 3, range 0.4 1.55 um, coefficients 4.2564848 -0.015091057 2 0.086600358 -2 0.011001775 -4 -0.0012680564 -6 0.00017404024 -8
wavelength (um)	k
0.405	2.6483E-05
0.420	6.6807E-06
0.440	1.5053E-06
0.460	5.4905E-07
0.480	2.7023E-07
0.500	1.4670E-07
0.550	5.8474E-08
0.600	3.1863E-08
0.650	3.4518E-08
0.700	3.7173E-08
0.800	4.2484E-08
1.060	5.6291E-08
1.500	7.9657E-08
2.000	3.7267E-07
