Material: glass / sumita / K-SKLD120(M)
Optical constants. SUMITA Zemax catalog 2017-02-02 (obtained from http://www.sumita-opt.co.jp)See also SUMITA optical glass data book
Specs: {"n_is_absolute": false, "λ_is_vacuum": false, "temperature": "20.0 °C", "coefficients_of_thermal_dispersion": "4.57e-06 1.39e-08 -1.08e-10 5.35e-07 5.99e-10 0.138", "n_d": 1.58401, "V_d": 59.5, "glass_code": 587598, "density": "2.64 g/cm3", "coefficient_of_thermal_expansion_1": "6.4e-06 K-1", "coefficient_of_thermal_expansion_2": "8.5e-06 K-1", "ΔP_gF": -0.0062, "climatic_resistance": 1.0, "acid_resistance": 2.0}
Dispersion formula 3, range 0.36 1.55 um, coefficients 2.47209 -0.011710437 2 0.013292551 -2 0.00033538382 -4 -1.3094931e-05 -6 4.3086267e-07 -8
wavelength (um)	k
0.290	8.4225E-06
0.300	5.5945E-06
0.310	3.4199E-06
0.320	2.0165E-06
0.330	1.1434E-06
0.340	6.2752E-07
0.350	3.3398E-07
0.360	1.5298E-07
0.370	9.2720E-08
0.380	5.4927E-08
0.390	2.8058E-08
0.400	1.2758E-08
0.420	1.0042E-08
0.440	1.0520E-08
0.460	7.3285E-09
0.480	7.6471E-09
0.500	7.9657E-09
0.550	8.7623E-09
0.600	9.5589E-09
0.650	1.0355E-08
0.700	1.1152E-08
0.800	1.2745E-08
1.060	1.6887E-08
1.500	4.7842E-08
2.000	3.3778E-07
