Material: glass / sumita / K-SK18
Optical constants. SUMITA Zemax catalog 2017-02-02 (obtained from http://www.sumita-opt.co.jp)See also SUMITA optical glass data book
Specs: {"n_is_absolute": false, "λ_is_vacuum": false, "temperature": "20.0 °C", "coefficients_of_thermal_dispersion": "-1.85e-06 1.9e-08 -1.3e-10 4.59e-07 9.89e-10 0.204", "n_d": 1.63854, "V_d": 55.5, "glass_code": 639555, "density": "3.69 g/cm3", "coefficient_of_thermal_expansion_1": "6.8e-06 K-1", "coefficient_of_thermal_expansion_2": "8.1e-06 K-1", "ΔP_gF": -0.0018, "climatic_resistance": 3.0, "acid_resistance": 5.0}
Dispersion formula 3, range 0.36 1.55 um, coefficients 2.6383229 -0.010806956 2 0.016153414 -2 0.00046673954 -4 -2.5414619e-05 -6 1.9703165e-06 -8
wavelength (um)	k
0.330	7.8670E-06
0.340	5.6046E-06
0.350	2.3832E-06
0.360	1.1516E-06
0.370	5.6285E-07
0.380	2.9518E-07
0.390	1.5919E-07
0.400	9.3675E-08
0.420	4.0350E-08
0.440	3.5190E-08
0.460	3.3094E-08
0.480	2.2987E-08
0.500	2.3945E-08
0.550	2.1939E-08
0.600	2.3933E-08
0.650	1.5541E-08
0.700	1.1152E-08
0.800	1.2745E-08
1.060	2.5344E-08
1.500	9.5877E-08
2.000	4.6837E-07
