Material: glass / sumita / K-VC99(M)
Optical constants. SUMITA Zemax catalog 2017-02-02 (obtained from http://www.sumita-opt.co.jp)See also SUMITA optical glass data book
Specs: {"n_is_absolute": false, "λ_is_vacuum": false, "temperature": "20.0 °C", "coefficients_of_thermal_dispersion": "4.51e-06 1.51e-08 -2.57e-10 7.41e-07 8.37e-10 0.205", "n_d": 1.84604, "V_d": 41.5, "glass_code": 851416, "density": "5.15 g/cm3", "coefficient_of_thermal_expansion_1": "6e-06 K-1", "coefficient_of_thermal_expansion_2": "7.3e-06 K-1", "ΔP_gF": -0.0094, "climatic_resistance": 1.0, "acid_resistance": 2.0}
Dispersion formula 3, range 0.36 1.55 um, coefficients 3.3130252 -0.01525551 2 0.031799975 -2 0.0010027504 -4 -2.7509191e-05 -6 3.4290858e-06 -8
wavelength (um)	k
0.310	1.2621E-05
0.320	6.3688E-06
0.330	3.8709E-06
0.340	2.4995E-06
0.350	1.5559E-06
0.360	9.7713E-07
0.370	6.0232E-07
0.380	3.7285E-07
0.390	2.5204E-07
0.400	1.8007E-07
0.420	1.1908E-07
0.440	8.5059E-08
0.460	7.0220E-08
0.480	4.9982E-08
0.500	3.5972E-08
0.550	2.1939E-08
0.600	2.3933E-08
0.650	3.1129E-08
0.700	3.3523E-08
0.800	1.2745E-08
1.060	1.6887E-08
1.500	2.3897E-08
2.000	4.3563E-07
