Material: glass / sumita / K-VC185
Optical constants. SUMITA Zemax catalog 2017-02-02 (obtained from http://www.sumita-opt.co.jp)See also SUMITA optical glass data book
Specs: {"n_is_absolute": false, "λ_is_vacuum": false, "temperature": "20.0 °C", "coefficients_of_thermal_dispersion": "4.01e-06 1.77e-08 -2.37e-10 7.39e-07 1.02e-09 0.227", "n_d": 1.85375, "V_d": 40.6, "glass_code": 854406, "density": "5.0 g/cm3", "coefficient_of_thermal_expansion_1": "5.8e-06 K-1", "coefficient_of_thermal_expansion_2": "7e-06 K-1", "ΔP_gF": -0.0089, "climatic_resistance": 1.0, "acid_resistance": 3.0}
Dispersion formula 3, range 0.36 1.55 um, coefficients 3.3380677 -0.014969129 2 0.032739414 -2 0.0011048947 -4 -3.8597399e-05 -6 4.5931893e-06 -8
wavelength (um)	k
0.320	6.3688E-06
0.330	3.1705E-06
0.340	1.8378E-06
0.350	1.1405E-06
0.360	7.4504E-07
0.370	5.1336E-07
0.380	3.4560E-07
0.390	2.4867E-07
0.400	2.0034E-07
0.420	1.4690E-07
0.440	1.1388E-07
0.460	1.0019E-07
0.480	8.4972E-08
0.500	6.0135E-08
0.550	3.9569E-08
0.600	3.8351E-08
0.650	2.0732E-08
0.700	2.2326E-08
0.800	2.5516E-08
1.060	1.6887E-08
1.500	2.3897E-08
2.000	3.5405E-07
