Material: glass / sumita / K-VC80
Optical constants. SUMITA Zemax catalog 2017-02-02 (obtained from http://www.sumita-opt.co.jp)See also SUMITA optical glass data book
Specs: {"n_is_absolute": false, "λ_is_vacuum": false, "temperature": "20.0 °C", "coefficients_of_thermal_dispersion": "1.72e-06 1.69e-08 -1.41e-10 6.62e-07 9.46e-10 0.149", "n_d": 1.69384, "V_d": 53.1, "glass_code": 694531, "density": "3.81 g/cm3", "coefficient_of_thermal_expansion_1": "6.4e-06 K-1", "coefficient_of_thermal_expansion_2": "9.4e-06 K-1", "ΔP_gF": -0.0059, "climatic_resistance": 1.0, "acid_resistance": 4.0}
Dispersion formula 3, range 0.36 1.55 um, coefficients 2.8135722 -0.012577591 2 0.019933465 -2 0.00015711222 -4 4.0676176e-05 -6 -2.4977604e-06 -8
wavelength (um)	k
0.280	7.4070E-06
0.290	5.0522E-06
0.300	3.3384E-06
0.310	2.8032E-06
0.320	1.4003E-06
0.330	8.9570E-07
0.340	5.5348E-07
0.350	3.3084E-07
0.360	2.0482E-07
0.370	1.2941E-07
0.380	7.9663E-08
0.390	5.9534E-08
0.400	4.4878E-08
0.420	3.3591E-08
0.440	2.8124E-08
0.460	1.4672E-08
0.480	7.6471E-09
0.500	7.9657E-09
0.550	8.7623E-09
0.600	9.5589E-09
0.650	1.0355E-08
0.700	1.1152E-08
0.800	1.2745E-08
1.060	1.6887E-08
1.500	2.3897E-08
2.000	3.8663E-07
