Material: organic / C3H8O - propanol / Sani-formula
Optical constants. E. Sani and A. Dell'Oro. Spectral optical constants of ethanol and isopropanol from ultraviolet to far infrared, Optical Materials 60, 137-141 (2016)
Comments: Room temperature
Dispersion formula 2, range 0.185 2.8 um, coefficients 0 0.0107 8.88 0.8702 0.01036
wavelength (um)	k
0.185185	3.41068E-05
0.186270	6.18416E-05
0.187368	2.00315E-04
0.188478	3.45052E-04
0.189602	2.74416E-04
0.190740	2.07327E-04
0.191891	1.57994E-04
0.193056	1.22773E-04
0.194236	9.94087E-05
0.195429	8.40519E-05
0.196638	7.31039E-05
0.197862	6.61263E-05
0.199101	6.12422E-05
0.200355	5.74778E-05
0.201626	5.37950E-05
0.202913	5.03158E-05
0.204216	4.69382E-05
0.205536	4.33866E-05
0.206874	3.96802E-05
0.208228	3.59422E-05
0.209601	3.23452E-05
0.210992	2.92433E-05
0.212402	2.63701E-05
0.213830	2.44131E-05
0.215278	2.30640E-05
0.216745	2.20425E-05
0.218233	2.12197E-05
0.219741	2.05594E-05
0.221271	1.99561E-05
0.222821	1.93538E-05
0.224394	1.87230E-05
0.225989	1.80657E-05
0.227606	1.73200E-05
0.229248	1.63450E-05
0.230912	1.50634E-05
0.232602	1.36303E-05
0.234316	1.23281E-05
0.236056	1.12509E-05
0.237821	1.03365E-05
0.239614	9.49299E-06
0.241433	8.75645E-06
0.243280	8.19630E-06
0.245156	7.79281E-06
0.247061	7.36694E-06
0.248996	6.91791E-06
0.250961	6.53239E-06
0.252958	6.30873E-06
0.254987	6.28639E-06
0.257048	6.46928E-06
0.259143	6.73012E-06
0.261273	7.09322E-06
0.263437	7.47647E-06
0.265638	8.00987E-06
0.267876	8.65248E-06
0.270153	9.32213E-06
0.272468	9.87852E-06
0.274823	1.02845E-05
0.277219	1.07265E-05
0.279657	1.11643E-05
0.282139	1.13287E-05
0.284665	1.08608E-05
0.287237	1.02121E-05
0.289855	9.68578E-06
0.292522	8.89113E-06
0.295238	7.68868E-06
0.298005	6.71052E-06
0.300825	6.13690E-06
0.303698	4.63777E-06
0.306627	3.42546E-06
0.309613	2.68673E-06
0.312658	2.22334E-06
0.315763	1.90248E-06
0.318930	1.66867E-06
0.322162	1.44682E-06
0.325459	1.28993E-06
0.328825	1.17392E-06
0.332262	1.04733E-06
0.335770	9.27013E-07
0.339354	7.59705E-07
0.343015	6.35546E-07
0.346756	5.67333E-07
0.350580	4.92700E-07
0.354488	4.55730E-07
0.358485	4.21901E-07
0.362573	2.09009E-07
0.366755	1.97038E-07
0.371035	1.85557E-07
0.375416	1.80545E-07
0.379902	1.70771E-07
0.384496	1.60291E-07
0.389203	1.51189E-07
0.394026	1.47320E-07
0.398970	1.41926E-07
0.404040	1.40696E-07
0.409241	1.38660E-07
0.414577	1.37820E-07
0.420054	1.33550E-07
0.425678	1.32977E-07
0.431454	1.29158E-07
0.437390	1.26641E-07
0.443491	1.23414E-07
0.449764	1.15828E-07
0.456218	1.05434E-07
0.462859	9.57078E-08
0.469697	9.34542E-08
0.476740	9.33525E-08
0.483997	8.51992E-08
0.491478	7.15031E-08
0.499195	6.33327E-08
0.507157	6.66308E-08
0.515378	7.38416E-08
0.523870	7.89186E-08
0.532646	8.15387E-08
0.541721	8.26523E-08
0.551111	8.44801E-08
0.560832	5.98394E-08
0.570902	6.37775E-08
0.581341	6.51927E-08
0.592168	6.58250E-08
0.603406	6.47935E-08
0.615079	6.46157E-08
0.627213	6.66582E-08
0.639835	5.92665E-08
0.652975	5.77385E-08
0.666667	5.83683E-08
0.670270	5.80904E-08
0.673913	5.85458E-08
0.677596	5.85977E-08
0.681319	5.61445E-08
0.685083	5.75589E-08
0.688889	5.51341E-08
0.692737	5.44542E-08
0.696629	5.55001E-08
0.700565	5.37595E-08
0.704545	5.85123E-08
0.708571	6.01973E-08
0.712644	6.02144E-08
0.716763	6.24378E-08
0.720930	6.23805E-08
0.725146	6.99125E-08
0.729412	8.11830E-08
0.733728	9.83329E-08
0.738095	1.26119E-07
0.742515	1.21405E-07
0.746988	8.87901E-08
0.751515	7.40500E-08
0.756098	7.25427E-08
0.760736	7.15060E-08
0.765432	7.50380E-08
0.770186	7.97953E-08
0.775000	8.15700E-08
0.779874	8.50255E-08
0.784810	8.45452E-08
0.789809	8.30850E-08
0.794872	8.59155E-08
0.800000	9.27676E-08
0.805195	9.65640E-08
0.810457	9.47487E-08
0.815789	8.77695E-08
0.821192	8.58615E-08
0.826667	8.53058E-08
0.832215	9.21902E-08
0.837838	1.06786E-07
0.843537	1.18403E-07
0.849315	1.48866E-07
0.855172	1.69819E-07
0.861111	1.46267E-07
0.867133	1.70870E-07
0.873239	2.10778E-07
0.879433	2.51546E-07
0.885714	2.77956E-07
0.892086	3.93563E-07
0.898551	6.95320E-07
0.905109	1.03266E-06
0.911765	8.67983E-07
0.918518	4.63233E-07
0.925373	3.67619E-07
0.932331	3.78286E-07
0.939394	4.07099E-07
0.946565	4.07232E-07
0.953846	3.90983E-07
0.961240	5.20666E-07
0.968750	4.75532E-07
0.976378	4.76012E-07
0.984127	5.75229E-07
0.992000	7.27425E-07
1.00000	8.55187E-07
1.00813	1.02009E-06
1.01639	1.09143E-06
1.02479	9.37236E-07
1.03333	8.15486E-07
1.04202	7.85594E-07
1.05085	7.87935E-07
1.05983	7.62699E-07
1.06897	7.66357E-07
1.07826	6.72471E-07
1.08772	6.25181E-07
1.09735	5.65629E-07
1.10714	5.68987E-07
1.11712	6.44210E-07
1.12727	8.42485E-07
1.13761	2.24259E-06
1.14815	3.82502E-06
1.15888	3.93397E-06
1.16981	7.16103E-06
1.18095	1.28645E-05
1.19231	9.32987E-06
1.20388	5.07628E-06
1.21569	4.99870E-06
1.22772	5.09813E-06
1.24000	4.51577E-06
1.25253	4.33889E-06
1.26531	3.24341E-06
1.27835	2.40784E-06
1.29167	2.13528E-06
1.30526	1.98899E-06
1.31915	1.99749E-06
1.33333	2.41852E-06
1.34783	4.98999E-06
1.36264	1.12282E-05
1.37778	1.49862E-05
1.39326	1.48251E-05
1.40909	2.57700E-05
1.42529	2.01184E-05
1.44186	2.53848E-05
1.45882	3.20456E-05
1.47619	3.77953E-05
1.49398	4.19023E-05
1.51220	4.16434E-05
1.53086	4.14388E-05
1.55000	4.38850E-05
1.56962	4.91502E-05
1.58974	4.83775E-05
1.61039	3.96435E-05
1.63158	3.12745E-05
1.65333	2.60225E-05
1.67568	4.89570E-05
1.69863	1.04887E-04
1.72222	7.12569E-05
1.74648	5.89251E-05
1.77143	5.32571E-05
1.79710	3.72583E-05
1.82353	4.51904E-05
1.85075	2.45192E-05
1.87879	2.55489E-05
1.90769	3.54569E-05
1.93750	3.39967E-05
1.96825	3.36053E-05
2.00000	4.85244E-05
2.00972	5.44813E-05
2.01954	6.27776E-05
2.02946	7.81913E-05
2.03947	1.00744E-04
2.04959	1.33034E-04
2.05980	1.67704E-04
2.07012	1.96839E-04
2.08054	2.12715E-04
2.09106	2.14015E-04
2.10169	2.05330E-04
2.11244	1.92242E-04
2.12329	1.76941E-04
2.13425	1.58135E-04
2.14533	1.43030E-04
2.15652	1.31741E-04
2.16783	1.25706E-04
2.17926	1.23180E-04
2.19081	1.21041E-04
2.20249	1.16130E-04
2.21429	1.15023E-04
2.22621	1.21722E-04
2.23827	1.40278E-04
2.25045	2.53160E-04
2.26277	5.34786E-04
2.27523	5.43272E-04
2.28782	5.25130E-04
2.30056	8.00964E-04
2.31343	9.12935E-04
2.32645	7.80408E-04
2.33962	5.54870E-04
2.35294	4.71918E-04
2.36641	3.75427E-04
2.38004	3.17439E-04
2.39382	3.18529E-04
2.40777	4.40536E-04
2.42188	5.88782E-04
2.43615	5.29416E-04
2.45059	6.40655E-04
2.46521	6.78739E-04
2.48000	6.06812E-04
2.49497	4.37230E-04
2.51012	3.13731E-04
2.52546	2.48971E-04
2.54098	2.65445E-04
2.55670	2.77629E-04
2.57261	2.66021E-04
2.58873	2.82141E-04
2.60504	2.86388E-04
2.62156	3.11190E-04
2.63830	3.40364E-04
2.65525	2.21977E-04
2.67241	2.09967E-04
2.68980	2.22093E-04
2.70742	3.44594E-04
2.72527	5.65491E-04
2.74336	8.58808E-04
2.76169	1.43238E-03
2.78027	1.97515E-03
2.79910	3.43636E-03
