Material: organic / C3H8O - propanol / Sani
Optical constants. E. Sani and A. Dell'Oro. Spectral optical constants of ethanol and isopropanol from ultraviolet to far infrared, Optical Materials 60, 137-141 (2016)
Comments: Room temperature
wavelength (um)	n	k
0.185185	1.50119	3.41068E-05
0.187368	1.49681	2.00315E-04
0.189602	1.49303	2.74416E-04
0.191891	1.48910	1.57994E-04
0.194236	1.48521	9.94087E-05
0.196638	1.48143	7.31039E-05
0.199101	1.47776	6.12422E-05
0.201626	1.47419	5.37950E-05
0.204216	1.47073	4.69382E-05
0.206874	1.46737	3.96802E-05
0.209601	1.46409	3.23452E-05
0.212402	1.46090	2.63701E-05
0.215278	1.45780	2.30640E-05
0.218233	1.45479	2.12197E-05
0.221271	1.45185	1.99561E-05
0.224394	1.44900	1.87230E-05
0.227606	1.44622	1.73200E-05
0.230912	1.44352	1.50634E-05
0.234316	1.44089	1.23281E-05
0.237821	1.43833	1.03365E-05
0.241433	1.43584	8.75645E-06
0.245156	1.43341	7.79281E-06
0.248996	1.43105	6.91791E-06
0.252958	1.42875	6.30873E-06
0.257048	1.42651	6.46928E-06
0.261273	1.42433	7.09322E-06
0.265638	1.42221	8.00987E-06
0.270153	1.42015	9.32213E-06
0.274823	1.41814	1.02845E-05
0.279657	1.41619	1.11643E-05
0.284665	1.41429	1.08608E-05
0.289855	1.41244	9.68578E-06
0.295238	1.41064	7.68868E-06
0.300825	1.40889	6.13690E-06
0.306627	1.40719	3.42546E-06
0.312658	1.40553	2.22334E-06
0.318930	1.40392	1.66867E-06
0.325459	1.40235	1.28993E-06
0.332262	1.40082	1.04733E-06
0.339354	1.39934	7.59705E-07
0.346756	1.39790	5.67333E-07
0.354488	1.39650	4.55730E-07
0.362573	1.39515	2.09009E-07
0.371035	1.39383	1.85557E-07
0.379902	1.39255	1.70771E-07
0.389203	1.39131	1.51189E-07
0.398970	1.39010	1.41926E-07
0.409241	1.38894	1.38660E-07
0.420054	1.38780	1.33550E-07
0.431454	1.38671	1.29158E-07
0.443491	1.38564	1.23414E-07
0.456218	1.38462	1.05434E-07
0.469697	1.38362	9.34542E-08
0.483997	1.38266	8.51992E-08
0.499195	1.38173	6.33327E-08
0.515378	1.38083	7.38416E-08
0.532646	1.37997	8.15387E-08
0.551111	1.37913	8.44801E-08
0.570902	1.37832	6.37775E-08
0.592168	1.37755	6.58250E-08
0.615079	1.37680	6.46157E-08
0.639835	1.37607	5.92665E-08
0.666667	1.37538	5.83683E-08
0.673913	1.37521	5.85458E-08
0.681319	1.37503	5.61445E-08
0.688889	1.37486	5.51341E-08
0.696629	1.37469	5.55001E-08
0.704545	1.37452	5.85123E-08
0.712644	1.37436	6.02144E-08
0.720930	1.37419	6.23805E-08
0.729412	1.37403	8.11830E-08
0.738095	1.37387	1.26119E-07
0.746988	1.37371	8.87901E-08
0.756098	1.37355	7.25427E-08
0.765432	1.37340	7.50380E-08
0.775000	1.37324	8.15700E-08
0.784810	1.37309	8.45452E-08
0.794872	1.37294	8.59155E-08
0.805195	1.37278	9.65640E-08
0.815789	1.37263	8.77695E-08
0.826667	1.37249	8.53058E-08
0.837838	1.37234	1.06786E-07
0.849315	1.37219	1.48866E-07
0.861111	1.37205	1.46267E-07
0.873239	1.37190	2.10778E-07
0.885714	1.37176	2.77956E-07
0.898551	1.37162	6.95320E-07
0.911765	1.37148	8.67983E-07
0.925373	1.37133	3.67619E-07
0.939394	1.37120	4.07099E-07
0.953846	1.37106	3.90983E-07
0.968750	1.37092	4.75532E-07
0.984127	1.37078	5.75229E-07
1.00000	1.37064	8.55187E-07
1.01639	1.37051	1.09143E-06
1.03333	1.37037	8.15486E-07
1.05085	1.37023	7.87935E-07
1.06897	1.37009	7.66357E-07
1.08772	1.36996	6.25181E-07
1.10714	1.36982	5.68987E-07
1.12727	1.36968	8.42485E-07
1.14815	1.36954	3.82502E-06
1.16981	1.36939	7.16103E-06
1.19231	1.36927	9.32987E-06
1.21569	1.36912	4.99870E-06
1.24000	1.36897	4.51577E-06
1.26531	1.36882	3.24341E-06
1.29167	1.36867	2.13528E-06
1.31915	1.36851	1.99749E-06
1.34783	1.36834	4.98999E-06
1.37778	1.36818	1.49862E-05
1.40909	1.36801	2.57700E-05
1.44186	1.36784	2.53848E-05
1.47619	1.36766	3.77953E-05
1.51220	1.36748	4.16434E-05
1.55000	1.36728	4.38850E-05
1.58974	1.36708	4.83775E-05
1.63158	1.36685	3.12745E-05
1.67568	1.36654	4.89570E-05
1.72222	1.36635	7.12569E-05
1.77143	1.36610	5.32571E-05
1.82353	1.36576	4.51904E-05
1.87879	1.36538	2.55489E-05
1.93750	1.36496	3.39967E-05
2.00000	1.36445	4.85244E-05
2.01954	1.36427	6.27776E-05
2.03947	1.36409	1.00744E-04
2.05980	1.36392	1.67704E-04
2.08054	1.36380	2.12715E-04
2.10169	1.36366	2.05330E-04
2.12329	1.36349	1.76941E-04
2.14533	1.36328	1.43030E-04
2.16783	1.36303	1.25706E-04
2.19081	1.36275	1.21041E-04
2.21429	1.36244	1.15023E-04
2.23827	1.36202	1.40278E-04
2.26277	1.36158	5.34786E-04
2.28782	1.36151	5.25130E-04
2.31343	1.36150	9.12935E-04
2.33962	1.36137	5.54870E-04
2.36641	1.36094	3.75427E-04
2.39382	1.36031	3.18529E-04
2.42188	1.35991	5.88782E-04
2.45059	1.35940	6.40655E-04
2.48000	1.35911	6.06812E-04
2.51012	1.35841	3.13731E-04
2.54098	1.35745	2.65445E-04
2.57261	1.35651	2.66021E-04
2.60504	1.35538	2.86388E-04
2.63830	1.35407	3.40364E-04
2.67241	1.35228	2.09967E-04
2.70742	1.34976	3.44594E-04
2.74336	1.34649	8.58808E-04
2.78027	1.34193	1.97515E-03
2.81818	1.33507	5.98922E-03
2.85714	1.32852	1.55754E-02
2.89720	1.32747	3.09792E-02
2.93839	1.33518	4.72368E-02
2.98077	1.35462	5.75293E-02
3.02439	1.37442	5.37480E-02
3.06931	1.38730	4.09484E-02
3.11558	1.39055	2.64223E-02
3.16327	1.38660	1.51749E-02
3.21244	1.37933	8.75448E-03
3.26316	1.37015	5.81574E-03
3.31551	1.35334	6.90220E-03
3.36957	1.40017	9.84861E-02
3.42541	1.38750	2.95622E-02
3.48315	1.39800	2.61511E-02
3.54286	1.39204	9.37110E-03
3.60465	1.38657	6.14177E-03
3.66864	1.38248	5.67339E-03
3.73494	1.38059	4.00455E-03
3.80368	1.38010	3.48486E-03
3.87500	1.37855	3.49000E-03
3.94904	1.37702	2.66145E-03
4.02597	1.37631	1.85146E-03
4.10596	1.37463	1.29203E-03
4.18919	1.37433	1.54958E-03
4.27586	1.37287	7.25286E-04
4.36620	1.37188	9.10810E-04
4.46043	1.37085	6.43150E-04
4.55882	1.37009	1.18914E-03
4.66165	1.36909	4.54947E-04
4.76923	1.36790	6.09996E-04
4.88189	1.36722	6.82775E-04
5.00000	1.36583	4.63219E-04
5.04065	1.36531	6.39152E-04
5.08197	1.36507	6.80724E-04
5.12397	1.36458	6.85132E-04
5.16667	1.36403	7.52749E-04
5.21008	1.36340	1.06415E-03
5.25424	1.36343	1.91848E-03
5.29914	1.36368	1.30352E-03
5.34483	1.36309	1.01957E-03
5.39130	1.36248	8.87297E-04
5.43860	1.36183	9.25044E-04
5.48672	1.36122	9.23627E-04
5.53571	1.36044	1.02795E-03
5.58558	1.35959	1.21445E-03
5.63636	1.35848	2.42419E-03
5.68807	1.35981	2.44463E-03
5.74074	1.35904	1.79248E-03
5.79439	1.35823	1.67000E-03
5.84906	1.35738	1.61463E-03
5.90476	1.35634	1.63893E-03
5.96154	1.35534	1.95425E-03
6.01942	1.35454	2.20640E-03
6.07843	1.35367	2.28000E-03
6.13861	1.35265	2.22759E-03
6.20000	1.35118	2.15000E-03
6.26263	1.34949	2.30523E-03
6.32653	1.34754	2.55439E-03
6.39175	1.34527	2.98609E-03
6.45833	1.34258	3.67150E-03
6.52632	1.33928	4.71315E-03
6.59574	1.33483	6.22008E-03
6.66667	1.32868	9.71877E-03
6.73913	1.31964	1.91386E-02
6.81319	1.33007	5.14574E-02
6.88889	1.34927	3.04032E-02
6.96629	1.33554	2.68677E-02
7.04545	1.33266	3.63210E-02
7.12644	1.34027	4.19901E-02
7.20930	1.31704	5.08149E-02
7.29412	1.37138	6.90436E-02
7.38095	1.37502	2.78229E-02
7.46988	1.36582	4.34383E-02
7.56097	1.35342	4.45343E-02
7.65432	1.37383	5.70268E-02
7.75000	1.39040	3.99537E-02
7.84810	1.38477	2.18669E-02
7.94871	1.37494	1.57225E-02
8.05195	1.36722	1.25480E-02
8.15790	1.35834	1.06979E-02
8.26667	1.34734	1.03350E-02
8.37838	1.33074	1.29926E-02
8.49315	1.29881	2.38709E-02
8.61111	1.32401	1.28234E-01
8.73240	1.35313	7.33665E-02
8.85714	1.38176	1.43934E-01
8.98551	1.40986	9.54809E-02
9.11765	1.44785	6.12037E-02
9.25373	1.42932	2.31621E-02
9.39394	1.41118	1.27946E-02
9.53846	1.39784	8.35094E-03
9.68750	1.38671	6.98801E-03
9.84127	1.37659	6.83317E-03
10.0000	1.36437	7.40117E-03
10.1367	1.34923	1.00908E-02
10.2771	1.32123	1.86263E-02
10.4215	1.23531	1.10546E-01
10.5700	1.51286	1.27538E-01
10.7228	1.45449	2.83628E-02
10.8801	1.42548	1.39138E-02
11.0421	1.40995	8.44127E-03
11.2090	1.39941	7.12232E-03
11.3810	1.39111	7.00908E-03
11.5583	1.38394	7.70960E-03
11.7413	1.37637	9.35999E-03
11.9301	1.36605	1.24174E-02
12.1252	1.33745	2.89306E-02
12.3267	1.43298	4.33768E-02
12.5350	1.39325	1.53519E-02
12.7505	1.38230	1.71968E-02
12.9735	1.37680	2.03675E-02
13.2044	1.37355	2.41775E-02
13.4438	1.37177	2.82537E-02
13.6919	1.37091	3.25623E-02
13.9494	1.37118	3.70119E-02
14.2168	1.37260	4.14811E-02
14.4946	1.37508	4.55263E-02
14.7835	1.37879	4.91444E-02
15.0842	1.38309	5.16804E-02
15.3973	1.38823	5.30417E-02
15.7237	1.39355	5.30618E-02
16.0643	1.39854	5.16540E-02
16.4199	1.40270	4.91272E-02
16.7916	1.40591	4.59588E-02
17.1806	1.40772	4.25174E-02
17.5880	1.40885	3.91969E-02
18.0151	1.40893	3.57254E-02
18.4636	1.40812	3.28405E-02
18.9349	1.40639	3.06390E-02
19.4309	1.40269	2.95330E-02
19.9537	1.39676	3.35041E-02
20.5053	1.40755	4.95303E-02
21.0883	1.41494	3.00407E-02
21.7054	1.40738	2.80756E-02
22.3598	1.40326	3.02588E-02
23.0548	1.40177	3.93930E-02
23.7943	1.42369	4.56903E-02
24.5830	1.42273	2.51185E-02
25.4257	1.41506	2.20655E-02
26.3282	1.40907	2.79751E-02
27.2971	1.42765	2.19410E-02
28.3401	1.41836	1.65856E-02
29.4659	1.41481	1.44401E-02
30.6850	1.41059	1.42134E-02
32.0092	1.40887	1.45307E-02
33.4529	1.40663	1.57421E-02
35.0329	1.40392	1.80141E-02
36.7696	1.40449	2.20069E-02
38.6874	1.40462	2.31711E-02
40.8163	1.40233	2.44516E-02
43.1934	1.40293	3.03121E-02
45.8642	1.40550	3.28400E-02
48.8871	1.41114	3.76376E-02
52.3366	1.41622	4.53893E-02
56.3098	1.42979	4.75937E-02
60.9359	1.43588	4.47680E-02
