Material: organic / C2H6O - ethanol / Sani-formula
Optical constants. E. Sani and A. Dell'Oro. Spectral optical constants of ethanol and isopropanol from ultraviolet to far infrared, Optical Materials 60, 137-141 (2016)
Comments: Room temperature
Dispersion formula 2, range 0.185 2.8 um, coefficients 0 0.0165 9.08 0.8268 0.01039
wavelength (um)	k
0.185185	5.88167E-05
0.186270	1.20202E-04
0.187368	2.04586E-04
0.188478	2.28387E-04
0.189602	1.94946E-04
0.190740	1.55971E-04
0.191891	1.26718E-04
0.193056	1.04132E-04
0.194236	8.92852E-05
0.195429	7.75808E-05
0.196638	6.88302E-05
0.197862	6.21166E-05
0.199101	5.63481E-05
0.200355	5.10768E-05
0.201626	4.61457E-05
0.202913	4.11468E-05
0.204216	3.60617E-05
0.205536	3.11171E-05
0.206874	2.67193E-05
0.208228	2.32195E-05
0.209601	2.04768E-05
0.210992	1.83524E-05
0.212402	1.69310E-05
0.213830	1.56973E-05
0.215278	1.48515E-05
0.216745	1.43392E-05
0.218233	1.39602E-05
0.219741	1.37847E-05
0.221271	1.37030E-05
0.222821	1.35585E-05
0.224394	1.34328E-05
0.225989	1.33574E-05
0.227606	1.32591E-05
0.229248	1.24781E-05
0.230912	1.10342E-05
0.232602	9.62609E-06
0.234316	8.37528E-06
0.236056	7.46228E-06
0.237821	6.68571E-06
0.239614	6.10370E-06
0.241433	5.52691E-06
0.243280	5.15393E-06
0.245156	4.90794E-06
0.247061	4.63830E-06
0.248996	4.55959E-06
0.250961	4.44055E-06
0.252958	4.33743E-06
0.254987	4.26668E-06
0.257048	4.15013E-06
0.259143	4.04917E-06
0.261273	3.99830E-06
0.263437	3.91888E-06
0.265638	3.87038E-06
0.267876	3.93123E-06
0.270153	4.04846E-06
0.272468	4.01380E-06
0.274823	4.01102E-06
0.277219	3.97458E-06
0.279657	3.90453E-06
0.282139	3.74426E-06
0.284665	3.51912E-06
0.287237	3.49088E-06
0.289855	3.17148E-06
0.292522	2.92959E-06
0.295238	2.71735E-06
0.298005	2.53649E-06
0.300825	2.38572E-06
0.303698	2.25019E-06
0.306627	2.14039E-06
0.309613	2.02538E-06
0.312658	1.91069E-06
0.315763	1.81299E-06
0.318930	1.75454E-06
0.322162	1.67768E-06
0.325459	1.55432E-06
0.328825	1.42419E-06
0.332262	1.27140E-06
0.335770	1.08040E-06
0.339354	9.47472E-07
0.343015	8.77192E-07
0.346756	8.35376E-07
0.350580	8.01382E-07
0.354488	7.70660E-07
0.358485	7.37650E-07
0.362573	6.91396E-07
0.366755	6.30797E-07
0.371035	5.62662E-07
0.375416	4.98892E-07
0.379902	4.23145E-07
0.384496	3.32487E-07
0.389203	2.45729E-07
0.394026	1.82576E-07
0.398970	1.52602E-07
0.404040	1.38304E-07
0.409241	1.32010E-07
0.414577	1.47752E-07
0.420054	1.59179E-07
0.425678	1.33660E-07
0.431454	1.49357E-07
0.437390	1.60608E-07
0.443491	1.63053E-07
0.449764	1.41716E-07
0.456218	1.01757E-07
0.462859	9.90390E-08
0.469697	9.50057E-08
0.476740	9.08220E-08
0.483997	8.86991E-08
0.491478	8.98466E-08
0.499195	8.92759E-08
0.507157	8.57543E-08
0.515378	8.24858E-08
0.523870	7.89580E-08
0.532646	7.77276E-08
0.541721	7.69479E-08
0.551111	7.59523E-08
0.560832	7.72823E-08
0.570902	8.31852E-08
0.581341	8.28854E-08
0.592168	8.27308E-08
0.603406	8.39316E-08
0.615079	8.39490E-08
0.627213	8.60483E-08
0.639835	8.56429E-08
0.652975	8.66291E-08
0.666667	8.99035E-08
0.670270	9.11500E-08
0.673913	9.13608E-08
0.677596	9.28161E-08
0.681319	9.30223E-08
0.685083	9.67649E-08
0.688889	9.59715E-08
0.692737	9.97595E-08
0.696629	9.85394E-08
0.700565	9.93833E-08
0.704545	1.02069E-07
0.708571	1.04372E-07
0.712644	1.07855E-07
0.716763	1.09569E-07
0.720930	1.12452E-07
0.725146	1.17492E-07
0.729412	1.25782E-07
0.733728	1.40405E-07
0.738095	1.65905E-07
0.742515	1.70077E-07
0.746988	1.54041E-07
0.751515	1.48482E-07
0.756098	1.48470E-07
0.760736	1.52171E-07
0.765432	1.52953E-07
0.770186	1.52819E-07
0.775000	1.52598E-07
0.779874	1.50079E-07
0.784810	1.51013E-07
0.789809	1.52192E-07
0.794872	1.54619E-07
0.800000	1.60847E-07
0.805195	1.70448E-07
0.810457	1.70980E-07
0.815789	1.70718E-07
0.821192	1.71997E-07
0.826667	1.76492E-07
0.832215	1.75010E-07
0.837838	1.75421E-07
0.843537	1.70625E-07
0.849315	1.74397E-07
0.855172	1.63977E-07
0.861111	1.97983E-07
0.867133	2.16874E-07
0.873239	2.44325E-07
0.879433	2.89373E-07
0.885714	3.16907E-07
0.892086	4.12116E-07
0.898551	6.35165E-07
0.905109	9.31260E-07
0.911765	9.55033E-07
0.918518	7.14474E-07
0.925373	6.85686E-07
0.932331	6.66195E-07
0.939394	6.37376E-07
0.946565	5.58361E-07
0.953846	4.75997E-07
0.961240	5.59271E-07
0.968750	5.95003E-07
0.976378	6.60248E-07
0.984127	7.67091E-07
0.992000	9.19860E-07
1.00000	1.06011E-06
1.00813	1.21487E-06
1.01639	1.30855E-06
1.02479	1.21641E-06
1.03333	1.13301E-06
1.04202	1.11987E-06
1.05085	1.12092E-06
1.05983	1.06335E-06
1.06897	1.02785E-06
1.07826	9.94980E-07
1.08772	9.29500E-07
1.09735	8.62015E-07
1.10714	8.41029E-07
1.11712	8.67856E-07
1.12727	1.06374E-06
1.13761	2.06014E-06
1.14815	3.60822E-06
1.15888	4.00303E-06
1.16981	6.79591E-06
1.18095	1.12239E-05
1.19231	1.12100E-05
1.20388	9.15705E-06
1.21569	8.67595E-06
1.22772	6.90398E-06
1.24000	5.12616E-06
1.25253	4.20874E-06
1.26531	3.74644E-06
1.27835	3.23522E-06
1.29167	2.78200E-06
1.30526	2.66761E-06
1.31915	2.85402E-06
1.33333	3.57380E-06
1.34783	5.86524E-06
1.36264	1.06838E-05
1.37778	1.53093E-05
1.39326	1.71308E-05
1.40909	2.37097E-05
1.42529	2.69950E-05
1.44186	3.26352E-05
1.45882	4.23343E-05
1.47619	5.02607E-05
1.49398	5.74747E-05
1.51220	6.13351E-05
1.53086	6.37736E-05
1.55000	6.82738E-05
1.56962	7.58897E-05
1.58974	7.81261E-05
1.61039	6.83891E-05
1.63158	5.43599E-05
1.65333	4.58012E-05
1.67568	6.09641E-05
1.69863	1.14663E-04
1.72222	9.91395E-05
1.74648	8.05087E-05
1.77143	7.04828E-05
1.79710	5.08776E-05
1.82353	4.56333E-05
1.85075	3.34370E-05
1.87879	2.66169E-05
1.90769	3.21050E-05
1.93750	4.41027E-05
1.96825	4.55468E-05
2.00000	5.61923E-05
2.00972	6.67017E-05
2.01954	8.32266E-05
2.02946	1.03972E-04
2.03947	1.31579E-04
2.04959	1.65892E-04
2.05980	1.98286E-04
2.07012	2.24785E-04
2.08054	2.37373E-04
2.09106	2.33422E-04
2.10169	2.19813E-04
2.11244	2.04327E-04
2.12329	1.84964E-04
2.13425	1.68763E-04
2.14533	1.54637E-04
2.15652	1.43367E-04
2.16783	1.38719E-04
2.17926	1.37686E-04
2.19081	1.32906E-04
2.20249	1.34754E-04
2.21429	1.42890E-04
2.22621	1.62899E-04
2.23827	2.07746E-04
2.25045	3.08254E-04
2.26277	6.12694E-04
2.27523	7.91250E-04
2.28782	6.70120E-04
2.30056	8.15239E-04
2.31343	8.21319E-04
2.32645	5.40953E-04
2.33962	4.64457E-04
2.35294	5.71802E-04
2.36641	4.21729E-04
2.38004	3.80367E-04
2.39382	3.91033E-04
2.40777	4.23308E-04
2.42188	4.28250E-04
2.43615	4.56194E-04
2.45059	5.70150E-04
2.46521	6.81194E-04
2.48000	6.60214E-04
2.49497	6.26145E-04
2.51012	5.70366E-04
2.52546	4.41459E-04
2.54098	3.31464E-04
2.55670	2.58969E-04
2.57261	2.36017E-04
2.58873	2.71597E-04
2.60504	2.69271E-04
2.62156	2.82645E-04
2.63830	3.03156E-04
2.65525	3.32352E-04
2.67241	3.63391E-04
2.68980	3.62951E-04
2.70742	5.55764E-04
2.72527	6.26715E-04
2.74336	1.12340E-03
2.76169	1.85939E-03
2.78027	3.16598E-03
2.79910	5.44684E-03
