Material: organic / C2H6O - ethanol / Sani
Optical constants. E. Sani and A. Dell'Oro. Spectral optical constants of ethanol and isopropanol from ultraviolet to far infrared, Optical Materials 60, 137-141 (2016)
Comments: Room temperature
wavelength (um)	n	k
0.185185	1.47798	5.88167E-05
0.187368	1.47402	2.04586E-04
0.189602	1.47031	1.94946E-04
0.191891	1.46659	1.26718E-04
0.194236	1.46294	8.92852E-05
0.196638	1.45939	6.88302E-05
0.199101	1.45594	5.63481E-05
0.201626	1.45259	4.61457E-05
0.204216	1.44933	3.60617E-05
0.206874	1.44615	2.67193E-05
0.209601	1.44306	2.04768E-05
0.212402	1.44005	1.69310E-05
0.215278	1.43713	1.48515E-05
0.218233	1.43428	1.39602E-05
0.221271	1.43151	1.37030E-05
0.224394	1.42882	1.34328E-05
0.227606	1.42619	1.32591E-05
0.230912	1.42364	1.10342E-05
0.234316	1.42116	8.37528E-06
0.237821	1.41873	6.68571E-06
0.241433	1.41638	5.52691E-06
0.245156	1.41408	4.90794E-06
0.248996	1.41185	4.55959E-06
0.252958	1.40967	4.33743E-06
0.257048	1.40755	4.15013E-06
0.261273	1.40549	3.99830E-06
0.265638	1.40348	3.87038E-06
0.270153	1.40153	4.04846E-06
0.274823	1.39962	4.01102E-06
0.279657	1.39777	3.90453E-06
0.284665	1.39597	3.51912E-06
0.289855	1.39421	3.17148E-06
0.295238	1.39250	2.71735E-06
0.300825	1.39084	2.38572E-06
0.306627	1.38922	2.14039E-06
0.312658	1.38765	1.91069E-06
0.318930	1.38612	1.75454E-06
0.325459	1.38463	1.55432E-06
0.332262	1.38318	1.27140E-06
0.339354	1.38178	9.47472E-07
0.346756	1.38041	8.35376E-07
0.354488	1.37908	7.70660E-07
0.362573	1.37779	6.91396E-07
0.371035	1.37654	5.62662E-07
0.379902	1.37532	4.23145E-07
0.389203	1.37414	2.45729E-07
0.398970	1.37299	1.52602E-07
0.409241	1.37188	1.32010E-07
0.420054	1.37080	1.59179E-07
0.431454	1.36976	1.49357E-07
0.443491	1.36874	1.63053E-07
0.456218	1.36777	1.01757E-07
0.469697	1.36682	9.50057E-08
0.483997	1.36590	8.86991E-08
0.499195	1.36501	8.92759E-08
0.515378	1.36415	8.24858E-08
0.532646	1.36332	7.77276E-08
0.551111	1.36252	7.59523E-08
0.570902	1.36175	8.31852E-08
0.592168	1.36100	8.27308E-08
0.615079	1.36028	8.39490E-08
0.639835	1.35959	8.56429E-08
0.666667	1.35892	8.99035E-08
0.673913	1.35875	9.13608E-08
0.681319	1.35858	9.30223E-08
0.688889	1.35842	9.59715E-08
0.696629	1.35825	9.85394E-08
0.704545	1.35809	1.02069E-07
0.712644	1.35793	1.07855E-07
0.720930	1.35777	1.12452E-07
0.729412	1.35761	1.25782E-07
0.738095	1.35745	1.65905E-07
0.746988	1.35730	1.54041E-07
0.756098	1.35714	1.48470E-07
0.765432	1.35699	1.52953E-07
0.775000	1.35684	1.52598E-07
0.784810	1.35669	1.51013E-07
0.794872	1.35654	1.54619E-07
0.805195	1.35639	1.70448E-07
0.815789	1.35624	1.70718E-07
0.826667	1.35610	1.76492E-07
0.837838	1.35595	1.75421E-07
0.849315	1.35581	1.74397E-07
0.861111	1.35566	1.97983E-07
0.873239	1.35552	2.44325E-07
0.885714	1.35538	3.16907E-07
0.898551	1.35523	6.35165E-07
0.911765	1.35509	9.55033E-07
0.925373	1.35495	6.85686E-07
0.939394	1.35481	6.37376E-07
0.953846	1.35467	4.75997E-07
0.968750	1.35453	5.95003E-07
0.984127	1.35439	7.67091E-07
1.00000	1.35425	1.06011E-06
1.01639	1.35411	1.30855E-06
1.03333	1.35397	1.13301E-06
1.05085	1.35383	1.12092E-06
1.06897	1.35368	1.02785E-06
1.08772	1.35354	9.29500E-07
1.10714	1.35339	8.41029E-07
1.12727	1.35325	1.06374E-06
1.14815	1.35310	3.60822E-06
1.16981	1.35294	6.79591E-06
1.19231	1.35280	1.12100E-05
1.21569	1.35265	8.67595E-06
1.24000	1.35249	5.12616E-06
1.26531	1.35232	3.74644E-06
1.29167	1.35215	2.78200E-06
1.31915	1.35197	2.85402E-06
1.34783	1.35179	5.86524E-06
1.37778	1.35160	1.53093E-05
1.40909	1.35140	2.37097E-05
1.44186	1.35120	3.26352E-05
1.47619	1.35099	5.02607E-05
1.51220	1.35078	6.13351E-05
1.55000	1.35055	6.82738E-05
1.58974	1.35031	7.81261E-05
1.63158	1.35005	5.43599E-05
1.67568	1.34969	6.09641E-05
1.72222	1.34943	9.91395E-05
1.77143	1.34911	7.04828E-05
1.82353	1.34869	4.56333E-05
1.87879	1.34821	2.66169E-05
1.93750	1.34766	4.41027E-05
2.00000	1.34702	5.61923E-05
2.01954	1.34679	8.32266E-05
2.03947	1.34656	1.31579E-04
2.05980	1.34636	1.98286E-04
2.08054	1.34619	2.37373E-04
2.10169	1.34599	2.19813E-04
2.12329	1.34575	1.84964E-04
2.14533	1.34547	1.54637E-04
2.16783	1.34514	1.38719E-04
2.19081	1.34478	1.32906E-04
2.21429	1.34437	1.42890E-04
2.23827	1.34387	2.07746E-04
2.26277	1.34331	6.12694E-04
2.28782	1.34330	6.70120E-04
2.31343	1.34325	8.21319E-04
2.33962	1.34266	4.64457E-04
2.36641	1.34222	4.21729E-04
2.39382	1.34149	3.91033E-04
2.42188	1.34082	4.28250E-04
2.45059	1.34000	5.70150E-04
2.48000	1.33941	6.60214E-04
2.51012	1.33866	5.70366E-04
2.54098	1.33758	3.31464E-04
2.57261	1.33615	2.36017E-04
2.60504	1.33456	2.69271E-04
2.63830	1.33262	3.03156E-04
2.67241	1.33018	3.63391E-04
2.70742	1.32700	5.55764E-04
2.74336	1.32230	1.12340E-03
2.78027	1.31580	3.16598E-03
2.81818	1.30712	8.87445E-03
2.85714	1.29943	2.13146E-02
2.89720	1.29690	3.93900E-02
2.93839	1.30413	6.09360E-02
2.98077	1.32663	7.90396E-02
3.02439	1.35510	7.81642E-02
3.06931	1.37538	6.42915E-02
3.11558	1.38435	4.46931E-02
3.16327	1.38164	2.77372E-02
3.21244	1.37356	1.72238E-02
3.26316	1.36263	1.19224E-02
3.31551	1.34439	1.22506E-02
3.36957	1.38720	7.43972E-02
3.42541	1.36958	3.98044E-02
3.48315	1.39277	4.35372E-02
3.54286	1.38854	1.68682E-02
3.60465	1.38041	9.36639E-03
3.66864	1.37664	8.52398E-03
3.73494	1.37410	4.97401E-03
3.80368	1.37022	3.76600E-03
3.87500	1.36760	3.41202E-03
3.94904	1.36631	3.86723E-03
4.02597	1.36555	3.06240E-03
4.10596	1.36361	1.78000E-03
4.18919	1.36262	1.57195E-03
4.27586	1.36112	7.09153E-04
4.36620	1.35912	9.26302E-04
4.46043	1.35840	1.31128E-03
4.55882	1.35713	1.18000E-03
4.66165	1.35598	1.37001E-03
4.76923	1.35522	1.16637E-03
4.88189	1.35403	7.24470E-04
5.00000	1.35242	8.67292E-04
5.04065	1.35171	1.17740E-03
5.08197	1.35135	1.36141E-03
5.12397	1.35069	1.38216E-03
5.16667	1.34961	2.54240E-03
5.21008	1.35190	3.30235E-03
5.25424	1.35140	1.73384E-03
5.29914	1.35053	1.36868E-03
5.34483	1.34993	1.21508E-03
5.39130	1.34921	1.17591E-03
5.43860	1.34835	1.18322E-03
5.48672	1.34779	1.29818E-03
5.53571	1.34707	1.43334E-03
5.58558	1.34619	1.66311E-03
5.63636	1.34569	1.97585E-03
5.68807	1.34527	2.36558E-03
5.74074	1.34485	2.13690E-03
5.79439	1.34386	2.15144E-03
5.84906	1.34296	2.45122E-03
5.90476	1.34185	2.97579E-03
5.96154	1.34119	3.36727E-03
6.01942	1.34061	3.68372E-03
6.07843	1.33984	3.62826E-03
6.13861	1.33884	3.53178E-03
6.20000	1.33740	3.70342E-03
6.26263	1.33588	3.88503E-03
6.32653	1.33402	4.35462E-03
6.39175	1.33189	5.08561E-03
6.45833	1.32924	6.18937E-03
6.52632	1.32598	7.56557E-03
6.59574	1.32220	9.54876E-03
6.66667	1.31697	1.38329E-02
6.73913	1.31623	2.47174E-02
6.81319	1.31418	3.12631E-02
6.88889	1.32637	4.32906E-02
6.96629	1.33089	4.04616E-02
7.04545	1.33710	4.28699E-02
7.12644	1.34056	3.94783E-02
7.20930	1.33494	4.76181E-02
7.29412	1.36665	4.30591E-02
7.38095	1.35231	2.93647E-02
7.46988	1.34951	3.42550E-02
7.56097	1.35590	3.49028E-02
7.65432	1.35976	2.84950E-02
7.75000	1.35538	2.21730E-02
7.84810	1.35534	2.80973E-02
7.94871	1.35751	1.66443E-02
8.05195	1.35112	1.29491E-02
8.15790	1.34593	1.13533E-02
8.26667	1.34024	1.04907E-02
8.37838	1.33415	1.01074E-02
8.49315	1.32685	1.05402E-02
8.61111	1.31702	1.31817E-02
8.73240	1.30797	1.65839E-02
8.85714	1.29213	2.13674E-02
8.98551	1.25991	3.16761E-02
9.11765	1.21266	1.44995E-01
9.25373	1.36959	1.31335E-01
9.39394	1.27907	8.74358E-02
9.53846	1.45901	3.75366E-01
9.68750	1.52841	6.14935E-02
9.84127	1.45968	1.86240E-02
10.0000	1.42894	1.10753E-02
10.1367	1.41206	5.51526E-03
10.2771	1.39967	4.09336E-03
10.4215	1.38971	3.40284E-03
10.5700	1.38092	3.07293E-03
10.7228	1.37170	3.42000E-03
10.8801	1.36116	5.00462E-03
11.0421	1.34540	8.98032E-03
11.2090	1.30981	3.51839E-02
11.3810	1.42915	1.23394E-01
11.5583	1.40718	1.46846E-02
11.7413	1.38277	1.06555E-02
11.9301	1.37149	1.24418E-02
12.1252	1.36339	1.58224E-02
12.3267	1.35624	2.40955E-02
12.5350	1.36580	2.79355E-02
12.7505	1.36057	2.62725E-02
12.9735	1.35747	2.95509E-02
13.2044	1.35594	3.36852E-02
13.4438	1.35537	3.81494E-02
13.6919	1.35600	4.28425E-02
13.9494	1.35733	4.74407E-02
14.2168	1.35990	5.16418E-02
14.4946	1.36347	5.56206E-02
14.7835	1.36803	5.93525E-02
15.0842	1.37364	6.19110E-02
15.3973	1.37989	6.26443E-02
15.7237	1.38605	6.19096E-02
16.0643	1.39187	5.98779E-02
16.4199	1.39672	5.74243E-02
16.7916	1.40115	5.33412E-02
17.1806	1.40377	4.85831E-02
17.5880	1.40534	4.43182E-02
18.0151	1.40631	3.99245E-02
18.4636	1.40657	3.61073E-02
18.9349	1.40641	3.20242E-02
19.4309	1.40413	2.90442E-02
19.9537	1.40201	2.62691E-02
20.5053	1.39952	2.44527E-02
21.0883	1.39673	2.30640E-02
21.7054	1.39158	2.52719E-02
22.3598	1.38828	3.32074E-02
23.0548	1.39862	4.68073E-02
23.7943	1.41319	2.96965E-02
24.5830	1.40780	2.24016E-02
25.4257	1.40602	1.99162E-02
26.3282	1.40172	1.52975E-02
27.2971	1.39912	1.56298E-02
28.3401	1.39556	1.58529E-02
29.4659	1.39404	1.62992E-02
30.6849	1.39065	1.68109E-02
32.0092	1.38858	1.77350E-02
33.4529	1.38816	2.09895E-02
35.0329	1.38604	2.52175E-02
36.7696	1.38698	2.71266E-02
38.6874	1.38342	3.24935E-02
40.8163	1.38681	4.20999E-02
43.1934	1.39009	4.52247E-02
45.8642	1.39593	4.53055E-02
48.8871	1.39919	5.51735E-02
52.3366	1.41632	6.26375E-02
56.3098	1.41942	7.02443E-02
60.9359	1.51631	6.62100E-02
