Material: organic / CH2Cl2 - dichloromethane / Bertie
Optical constants. J. E. Bertie, Z. Lan, R. N. Jones, Y. Apelblat. Infrared intensities of liquids XVIII: Accurate optical constants and molar absorption coefficients between 6500 and 800 cm-1 of dichloromethane at 25°C, from spectra recorded in several laboratories, Appl. Spectrosc. 49, 840 (1995)
Specs: {"temperature": "25 °C"}
wavelength (um)	n	k
1.5385	1.4125	0.000E+00
1.5532	1.4125	1.200E-06
1.5683	1.4125	4.000E-07
1.5836	1.4125	1.400E-06
1.5992	1.4125	5.000E-07
1.6152	1.4125	1.100E-06
1.6314	1.4124	6.800E-06
1.6480	1.4124	1.210E-04
1.6649	1.4124	1.650E-05
1.6822	1.4123	1.022E-04
1.6999	1.4126	1.808E-04
1.7111	1.4125	1.002E-04
1.7156	1.4126	1.207E-04
1.7213	1.4126	4.540E-05
1.7305	1.4125	2.010E-05
1.7398	1.4125	7.600E-06
1.7492	1.4125	3.500E-06
1.7587	1.4125	3.100E-06
1.7683	1.4125	5.000E-06
1.7780	1.4124	3.700E-06
1.7878	1.4124	6.300E-06
1.7977	1.4124	5.300E-06
1.8077	1.4124	6.700E-06
1.8179	1.4124	1.290E-05
1.8281	1.4124	8.100E-06
1.8385	1.4124	2.580E-05
1.8490	1.4124	9.300E-06
1.8596	1.4124	7.700E-06
1.8703	1.4124	7.800E-06
1.8812	1.4124	8.000E-06
1.8922	1.4123	1.570E-05
1.9033	1.4123	1.020E-05
1.9145	1.4123	5.700E-06
1.9259	1.4123	8.900E-06
1.9374	1.4123	6.300E-06
1.9491	1.4123	4.300E-06
1.9608	1.4123	6.500E-06
1.9728	1.4123	5.700E-06
1.9849	1.4123	6.200E-06
1.9971	1.4123	4.800E-06
2.0095	1.4122	2.600E-06
2.0220	1.4122	3.400E-06
2.0347	1.4122	3.500E-06
2.0476	1.4122	4.300E-06
2.0606	1.4122	6.700E-06
2.0738	1.4122	1.470E-05
2.0871	1.4121	7.200E-06
2.1007	1.4121	1.520E-05
2.1144	1.4121	5.200E-06
2.1282	1.4121	6.000E-06
2.1423	1.4121	7.100E-06
2.1566	1.4120	1.100E-05
2.1710	1.4120	1.100E-05
2.1857	1.4119	2.520E-05
2.2005	1.4119	4.610E-05
2.2155	1.4118	8.170E-05
2.2308	1.4115	2.030E-04
2.2462	1.4122	2.234E-03
2.2619	1.4126	1.980E-04
2.2778	1.4123	8.400E-05
2.2939	1.4122	5.320E-05
2.3103	1.4121	5.650E-05
2.3269	1.4120	7.290E-05
2.3437	1.4118	1.753E-04
2.3608	1.4120	1.970E-04
2.3781	1.4116	6.940E-04
2.3957	1.4125	2.010E-04
2.4135	1.4122	6.500E-05
2.4316	1.4121	3.600E-05
2.4500	1.4121	2.460E-05
2.4687	1.4120	2.650E-05
2.4876	1.4119	3.790E-05
2.5069	1.4119	6.330E-05
2.5154	1.4118	8.820E-05
2.5203	1.4118	1.146E-04
2.5252	1.4117	1.700E-04
2.5301	1.4117	3.238E-04
2.5351	1.4119	6.000E-04
2.5400	1.4122	3.790E-04
2.5450	1.4122	1.806E-04
2.5500	1.4121	1.071E-04
2.5550	1.4120	7.510E-05
2.5601	1.4120	6.040E-05
2.5652	1.4120	5.360E-05
2.5702	1.4119	5.200E-05
2.5754	1.4119	5.760E-05
2.5805	1.4119	6.020E-05
2.5856	1.4119	4.700E-05
2.5908	1.4119	4.140E-05
2.5960	1.4119	4.080E-05
2.6012	1.4118	4.360E-05
2.6064	1.4118	5.220E-05
2.6117	1.4118	7.000E-05
2.6169	1.4118	6.660E-05
2.6222	1.4118	5.620E-05
2.6275	1.4118	5.730E-05
2.6329	1.4118	6.110E-05
2.6382	1.4117	6.610E-05
2.6463	1.4117	8.310E-05
2.6572	1.4116	2.066E-04
2.6681	1.4118	1.814E-04
2.6791	1.4118	1.770E-04
2.6903	1.4118	1.432E-04
2.7015	1.4117	2.164E-04
2.7128	1.4119	2.569E-04
2.7242	1.4119	7.620E-05
2.7357	1.4118	3.600E-05
2.7473	1.4118	2.260E-05
2.7590	1.4117	1.840E-05
2.7708	1.4117	1.980E-05
2.7827	1.4117	2.030E-05
2.7946	1.4116	1.760E-05
2.8068	1.4116	2.210E-05
2.8190	1.4116	2.500E-05
2.8313	1.4116	2.810E-05
2.8437	1.4115	1.650E-05
2.8562	1.4115	1.300E-05
2.8689	1.4115	1.290E-05
2.8816	1.4115	1.060E-05
2.8945	1.4114	1.210E-05
2.9075	1.4114	2.430E-05
2.9206	1.4114	2.280E-05
2.9338	1.4113	1.530E-05
2.9471	1.4113	1.390E-05
2.9606	1.4113	2.290E-05
2.9742	1.4112	3.400E-05
2.9879	1.4112	3.370E-05
3.0017	1.4111	3.720E-05
3.0157	1.4111	4.860E-05
3.0298	1.4110	6.780E-05
3.0440	1.4110	7.870E-05
3.0584	1.4109	9.640E-05
3.0729	1.4109	1.101E-04
3.0875	1.4108	1.370E-04
3.1023	1.4107	1.674E-04
3.1323	1.4106	2.510E-04
3.1628	1.4104	4.030E-04
3.1940	1.4101	6.300E-04
3.2258	1.4098	9.950E-04
3.2399	1.4094	1.268E-03
3.2480	1.4091	1.564E-03
3.2562	1.4087	2.150E-03
3.2644	1.4081	3.670E-03
3.2726	1.4101	6.940E-03
3.2809	1.4145	4.509E-03
3.2892	1.4139	1.964E-03
3.2976	1.4129	1.206E-03
3.3060	1.4123	1.001E-03
3.3145	1.4119	9.920E-04
3.3230	1.4115	1.114E-03
3.3315	1.4111	1.399E-03
3.3401	1.4106	2.265E-03
3.3487	1.4124	3.822E-03
3.3574	1.4136	2.239E-03
3.3661	1.4134	1.362E-03
3.3815	1.4129	7.838E-04
3.4171	1.4124	3.611E-04
3.4535	1.4120	2.072E-04
3.4907	1.4118	1.614E-04
3.5215	1.4116	2.088E-04
3.5311	1.4116	3.065E-04
3.5408	1.4117	2.371E-04
3.5505	1.4117	1.514E-04
3.5898	1.4115	6.410E-05
3.6300	1.4113	4.680E-05
3.6711	1.4111	7.510E-05
3.6894	1.4110	9.080E-05
3.6999	1.4110	1.192E-04
3.7105	1.4108	2.210E-04
3.7212	1.4109	7.709E-04
3.7319	1.4115	3.743E-04
3.7427	1.4113	1.490E-04
3.7699	1.4111	5.130E-05
3.8142	1.4109	4.110E-05
3.8597	1.4108	5.530E-05
3.9062	1.4107	7.150E-05
3.9448	1.4105	1.575E-04
3.9569	1.4105	2.627E-04
3.9690	1.4107	3.371E-04
3.9812	1.4107	1.743E-04
3.9934	1.4106	1.074E-04
4.0058	1.4106	8.460E-05
4.0182	1.4105	7.590E-05
4.0307	1.4105	7.370E-05
4.0433	1.4104	7.510E-05
4.0654	1.4104	8.470E-05
4.0911	1.4102	1.103E-04
4.1171	1.4101	1.946E-04
4.1335	1.4100	3.745E-04
4.1467	1.4102	6.416E-04
4.1600	1.4105	4.158E-04
4.1734	1.4104	2.163E-04
4.1971	1.4102	1.452E-04
4.2244	1.4100	1.642E-04
4.2521	1.4099	2.018E-04
4.2802	1.4097	2.753E-04
4.3015	1.4094	4.620E-04
4.3158	1.4090	8.450E-04
4.3303	1.4090	2.224E-03
4.3448	1.4113	2.159E-03
4.3594	1.4113	8.317E-04
4.3741	1.4110	4.190E-04
4.3889	1.4107	2.478E-04
4.4038	1.4106	1.709E-04
4.4188	1.4104	1.340E-04
4.4491	1.4103	1.047E-04
4.4799	1.4101	7.760E-05
4.5111	1.4100	6.350E-05
4.5427	1.4099	5.850E-05
4.5747	1.4098	5.770E-05
4.6073	1.4096	1.098E-04
4.6402	1.4096	2.462E-04
4.6737	1.4096	1.646E-04
4.7076	1.4096	2.636E-04
4.7421	1.4095	7.800E-05
4.7770	1.4094	4.250E-05
4.8125	1.4093	4.020E-05
4.8440	1.4091	6.280E-05
4.8621	1.4091	2.122E-04
4.8804	1.4092	1.200E-04
4.8989	1.4091	5.400E-05
4.9175	1.4091	3.680E-05
4.9362	1.4090	3.370E-05
4.9551	1.4089	3.770E-05
4.9741	1.4089	4.700E-05
4.9932	1.4088	6.360E-05
5.0125	1.4088	6.600E-05
5.0320	1.4088	4.970E-05
5.0516	1.4087	5.040E-05
5.0714	1.4087	9.100E-05
5.0913	1.4087	6.320E-05
5.1114	1.4086	2.740E-05
5.1469	1.4085	1.270E-05
5.2299	1.4082	1.250E-05
5.3157	1.4080	3.100E-05
5.4043	1.4077	1.960E-05
5.4960	1.4074	2.440E-05
5.5194	1.4074	2.690E-05
5.5430	1.4073	3.180E-05
5.5668	1.4072	4.420E-05
5.5908	1.4071	6.530E-05
5.6150	1.4071	4.520E-05
5.6395	1.4070	3.320E-05
5.6641	1.4069	2.780E-05
5.7266	1.4067	2.430E-05
5.8296	1.4063	3.750E-05
5.9364	1.4059	2.980E-05
6.0472	1.4054	4.390E-05
6.1330	1.4049	7.170E-05
6.1916	1.4046	1.170E-04
6.2513	1.4043	2.309E-04
6.3122	1.4040	1.561E-04
6.3665	1.4036	1.776E-04
6.3979	1.4033	2.340E-04
6.4296	1.4030	5.311E-04
6.4617	1.4033	6.946E-04
6.4940	1.4031	3.699E-04
6.6268	1.4018	4.180E-04
6.7651	1.4001	9.920E-04
6.8818	1.3982	2.796E-03
6.9186	1.3982	4.020E-03
6.9557	1.3988	4.921E-03
6.9932	1.3986	5.373E-03
7.0311	1.4009	9.840E-03
7.0695	1.4045	4.580E-03
7.1083	1.4031	2.631E-03
7.1771	1.4012	1.491E-03
7.3396	1.3974	7.610E-04
7.5097	1.3921	1.021E-03
7.6482	1.3842	2.339E-03
7.6708	1.3822	2.698E-03
7.6936	1.3798	3.146E-03
7.7165	1.3768	3.795E-03
7.7395	1.3731	4.702E-03
7.7627	1.3682	6.000E-03
7.7860	1.3615	7.980E-03
7.8094	1.3516	1.156E-02
7.8330	1.3359	1.917E-02
7.8568	1.3093	3.990E-02
7.8807	1.2764	1.146E-01
7.9047	1.4100	2.446E-01
7.9289	1.5227	1.083E-01
7.9532	1.4933	4.239E-02
7.9777	1.4704	2.168E-02
8.0023	1.4555	1.244E-02
8.0271	1.4453	8.130E-03
8.0520	1.4383	5.872E-03
8.0771	1.4331	4.551E-03
8.1023	1.4293	3.704E-03
8.1277	1.4262	3.084E-03
8.1533	1.4237	2.625E-03
8.1790	1.4216	2.324E-03
8.2049	1.4199	2.141E-03
8.2309	1.4184	1.910E-03
8.3367	1.4138	1.314E-03
8.4454	1.4107	1.206E-03
8.5569	1.4084	1.425E-03
8.6713	1.4073	1.756E-03
8.7889	1.4060	1.049E-03
8.9097	1.4044	6.760E-04
9.0339	1.4029	4.910E-04
9.1616	1.4014	3.800E-04
9.2930	1.3999	3.135E-04
9.4281	1.3984	2.816E-04
9.5673	1.3967	2.903E-04
9.7106	1.3950	4.128E-04
9.8583	1.3934	4.848E-04
10.0106	1.3913	5.585E-04
10.1676	1.3895	9.486E-04
10.3297	1.3872	6.423E-04
10.4969	1.3844	6.756E-04
10.5826	1.3827	7.600E-04
10.6697	1.3810	8.870E-04
10.7583	1.3790	1.081E-03
10.8483	1.3767	1.408E-03
10.9398	1.3739	2.020E-03
11.0329	1.3699	3.730E-03
11.1276	1.3663	1.348E-02
11.2240	1.3800	8.210E-03
11.3221	1.3744	2.554E-03
11.4218	1.3694	1.253E-03
11.5233	1.3650	8.980E-04
11.6267	1.3605	8.020E-04
11.8390	1.3505	9.530E-04
12.0592	1.3374	1.305E-03
12.2878	1.3189	2.414E-03
12.5253	1.2910	6.080E-03
