Material: glass / sumita / K-LaFK50(M)
Optical constants. SUMITA Zemax catalog 2017-02-02 (obtained from http://www.sumita-opt.co.jp)See also SUMITA optical glass data book
Specs: {"n_is_absolute": false, "λ_is_vacuum": false, "temperature": "20.0 °C", "coefficients_of_thermal_dispersion": "-3.11e-07 1.35e-08 -2.34e-10 5.76e-07 8.89e-10 0.201", "n_d": 1.76831, "V_d": 49.7, "glass_code": 772500, "density": "5.2 g/cm3", "coefficient_of_thermal_expansion_1": "7.3e-06 K-1", "coefficient_of_thermal_expansion_2": "9e-06 K-1", "ΔP_gF": -0.0056, "climatic_resistance": 1.0, "acid_resistance": 3.0}
Dispersion formula 3, range 0.36 1.55 um, coefficients 3.0568421 -0.011998981 2 0.024194996 -2 0.0004815051 -4 2.2084112e-06 -6 4.3040075e-07 -8
wavelength (um)	k
0.280	6.6750E-06
0.290	4.9123E-06
0.300	3.3578E-06
0.310	3.5516E-06
0.320	1.5363E-06
0.330	1.0478E-06
0.340	6.6186E-07
0.350	4.1684E-07
0.360	2.4511E-07
0.370	1.4483E-07
0.380	9.5226E-08
0.390	4.3756E-08
0.400	4.1652E-08
0.420	2.0114E-08
0.440	2.4596E-08
0.460	1.8349E-08
0.480	1.1476E-08
0.500	7.9657E-09
0.550	8.7623E-09
0.600	1.4345E-08
0.650	1.0355E-08
0.700	1.1152E-08
0.800	2.5516E-08
1.060	1.6887E-08
1.500	3.5864E-08
2.000	4.8477E-07
