Material: glass / sumita / K-VC79
Optical constants. SUMITA Zemax catalog 2017-02-02 (obtained from http://www.sumita-opt.co.jp)See also SUMITA optical glass data book
Specs: {"n_is_absolute": false, "λ_is_vacuum": false, "temperature": "20.0 °C", "coefficients_of_thermal_dispersion": "5.06e-07 1.46e-08 -2.13e-11 4.85e-07 4.45e-11 0.187", "n_d": 1.61035, "V_d": 57.9, "glass_code": 610579, "density": "3.09 g/cm3", "coefficient_of_thermal_expansion_1": "7.2e-06 K-1", "coefficient_of_thermal_expansion_2": "9.3e-06 K-1", "ΔP_gF": -0.0058, "climatic_resistance": 2.0, "acid_resistance": 4.0}
Dispersion formula 3, range 0.36 1.55 um, coefficients 2.5520489 -0.011234947 2 0.014455084 -2 0.00046725318 -4 -3.6714004e-05 -6 2.2810504e-06 -8
wavelength (um)	k
0.270	8.2006E-06
0.280	5.0647E-06
0.290	3.1087E-06
0.300	2.3225E-06
0.310	9.9162E-07
0.320	5.7142E-07
0.330	3.0308E-07
0.340	1.7029E-07
0.350	1.0212E-07
0.360	6.3729E-08
0.370	5.3481E-08
0.380	4.5703E-08
0.390	4.6905E-08
0.400	4.8108E-08
0.420	5.0514E-08
0.440	4.2271E-08
0.460	3.6790E-08
0.480	3.4533E-08
0.500	3.1959E-08
0.550	2.6340E-08
0.600	2.8734E-08
0.650	1.5541E-08
0.700	1.6736E-08
0.800	1.2745E-08
1.060	1.6887E-08
1.500	3.5864E-08
2.000	3.5405E-07
