Material: glass / cdgm / H-BAK7
Optical constants. CDGM Zemax catalog 2017-09 (obtained from http://www.cdgmgd.com)
Specs: {"n_is_absolute": false, "λ_is_vacuum": false, "temperature": "20.0 °C", "coefficients_of_thermal_dispersion": "1.23e-06 1.49e-08 -4.95e-11 4.16e-07 1.11e-10 0.251", "n_d": 1.568832, "V_d": 56.059608, "glass_code": 569560, "glass_status": "standard", "density": "2.83 g/cm3", "coefficient_of_thermal_expansion_1": "7.2e-06 K-1", "coefficient_of_thermal_expansion_2": "9e-06 K-1", "ΔP_gF": -0.0005, "climatic_resistance": 2.0}
Dispersion formula 3, range 0.365 1.014 um, coefficients 2.41803544 -0.0076261289 2 0.0165596275 -2 -0.000521246254 -4 0.000106128523 -6 -4.8581855e-06 -8
wavelength (um)	k
0.330	4.9995E-06
0.340	1.7229E-06
0.350	6.2847E-07
0.360	2.5762E-07
0.370	1.2019E-07
0.380	6.7269E-08
0.390	5.3213E-08
0.400	3.5208E-08
0.420	4.0350E-08
0.440	4.2271E-08
0.460	4.0489E-08
0.480	3.4533E-08
0.500	3.1959E-08
0.550	3.0745E-08
0.600	3.3540E-08
0.650	3.1129E-08
0.700	2.7922E-08
0.800	1.9127E-08
0.850	1.3542E-08
0.900	1.4338E-08
0.950	1.5135E-08
1.000	1.5931E-08
1.060	1.6887E-08
1.200	1.9118E-08
1.400	1.6838E-07
1.600	1.0227E-07
1.800	3.3330E-07
2.000	6.8289E-07
2.200	2.1586E-06
2.400	3.4439E-06
