Material: glass / cdgm / H-QF14
Optical constants. CDGM Zemax catalog 2017-09 (obtained from http://www.cdgmgd.com)
Specs: {"n_is_absolute": false, "λ_is_vacuum": false, "temperature": "20.0 °C", "coefficients_of_thermal_dispersion": "2.81e-07 1.63e-08 -1.07e-11 6.25e-07 4.08e-10 0.282", "n_d": 1.595512, "V_d": 39.228024, "glass_code": 596392, "density": "2.62 g/cm3", "coefficient_of_thermal_expansion_1": "7.8e-06 K-1", "coefficient_of_thermal_expansion_2": "9.2e-06 K-1", "ΔP_gF": 0.0014, "climatic_resistance": 1.0}
Dispersion formula 3, range 0.365 1.014 um, coefficients 2.48489196 -0.00931778798 2 0.0204890803 -2 0.000525537026 -4 -2.39700021e-06 -6 4.02659016e-06 -8
wavelength (um)	k
0.360	5.6325E-06
0.370	1.9826E-06
0.380	8.2988E-07
0.390	3.9673E-07
0.400	2.2075E-07
0.420	1.0180E-07
0.440	7.0738E-08
0.460	5.9043E-08
0.480	4.6114E-08
0.500	3.5972E-08
0.550	2.1939E-08
0.600	2.3933E-08
0.650	3.1129E-08
0.700	2.2326E-08
0.800	1.9127E-08
0.850	2.0323E-08
0.900	1.4338E-08
0.950	1.5135E-08
1.000	1.5931E-08
1.060	1.6887E-08
1.200	1.9118E-08
1.400	5.5844E-08
1.600	3.8255E-08
1.800	3.1864E-07
2.000	7.4949E-07
2.200	2.2380E-06
2.400	2.8805E-06
