Material: glass / cdgm / H-TF5
Optical constants. CDGM Zemax catalog 2017-09 (obtained from http://www.cdgmgd.com)
Specs: {"n_is_absolute": false, "λ_is_vacuum": false, "temperature": "20.0 °C", "coefficients_of_thermal_dispersion": "1.16e-06 1.82e-08 -7.95e-11 1.01e-06 -3.65e-10 0.08", "n_d": 1.654105, "V_d": 39.548456, "glass_code": 654395, "density": "3.01 g/cm3", "coefficient_of_thermal_expansion_1": "6.5e-06 K-1", "coefficient_of_thermal_expansion_2": "8.4e-06 K-1", "ΔP_gF": -0.0047, "climatic_resistance": 1.0}
Dispersion formula 3, range 0.365 1.014 um, coefficients 2.66774774 -0.0123753603 2 0.0236856508 -2 0.000348562611 -4 4.13195176e-05 -6 7.37775936e-07 -8
wavelength (um)	k
0.330	1.0023E-05
0.340	3.8500E-06
0.350	1.6500E-06
0.360	8.5487E-07
0.370	4.9240E-07
0.380	3.1189E-07
0.390	2.1856E-07
0.400	1.5992E-07
0.420	1.0180E-07
0.440	8.5059E-08
0.460	5.9043E-08
0.480	5.3854E-08
0.500	3.9989E-08
0.550	2.6340E-08
0.600	2.3933E-08
0.650	2.0732E-08
0.700	1.6736E-08
0.800	1.2745E-08
0.850	1.3542E-08
0.900	1.4338E-08
0.950	1.5135E-08
1.000	1.5931E-08
1.060	1.6887E-08
1.200	1.9118E-08
1.400	2.7064E-07
1.600	1.5371E-07
1.800	3.0401E-07
2.000	7.8289E-07
2.200	3.2621E-06
2.400	7.7629E-06
