Material: glass / cdgm / H-ZF1
Optical constants. CDGM Zemax catalog 2017-09 (obtained from http://www.cdgmgd.com)
Specs: {"n_is_absolute": false, "λ_is_vacuum": false, "temperature": "20.0 °C", "coefficients_of_thermal_dispersion": "-4.73e-06 1.27e-08 -8.17e-11 8.61e-07 9.43e-10 0.263", "n_d": 1.647693, "V_d": 33.842283, "glass_code": 648338, "glass_status": "standard", "density": "2.73 g/cm3", "coefficient_of_thermal_expansion_1": "9.1e-06 K-1", "coefficient_of_thermal_expansion_2": "1.17e-05 K-1", "ΔP_gF": 0.0039, "climatic_resistance": 1.0}
Dispersion formula 3, range 0.365 1.014 um, coefficients 2.636187 -0.0097034146 2 0.0255502623 -2 0.00100610407 -4 -4.2521904e-05 -6 9.06375385e-06 -8
wavelength (um)	k
0.360	5.8448E-06
0.370	1.7442E-06
0.380	5.8539E-07
0.390	2.4867E-07
0.400	1.2332E-07
0.420	5.7307E-08
0.440	4.2271E-08
0.460	3.6790E-08
0.480	3.0681E-08
0.500	1.9944E-08
0.550	1.3150E-08
0.600	9.5589E-09
0.650	1.5541E-08
0.700	1.6736E-08
0.800	1.2745E-08
0.850	1.3542E-08
0.900	1.4338E-08
0.950	1.5135E-08
1.000	1.5931E-08
1.060	1.6887E-08
1.200	1.9118E-08
1.400	7.8260E-08
1.600	1.1511E-07
1.800	4.5107E-07
2.000	9.1720E-07
2.200	2.1586E-06
2.400	3.3072E-06
