Material: glass / cdgm / H-ZLAF66GT
Optical constants. CDGM Zemax catalog 2017-09 (obtained from http://www.cdgmgd.com)
Specs: {"n_is_absolute": false, "λ_is_vacuum": false, "temperature": "20.0 °C", "coefficients_of_thermal_dispersion": "-1.89e-06 1.64e-08 -1.41e-10 8.7e-07 1.01e-09 0.245", "n_d": 1.800999, "V_d": 34.972131, "glass_code": 801350, "glass_status": "standard", "density": "3.89 g/cm3", "coefficient_of_thermal_expansion_1": "7.9e-06 K-1", "coefficient_of_thermal_expansion_2": "9.3e-06 K-1", "ΔP_gF": 0.001, "climatic_resistance": 1.0}
Dispersion formula 3, range 0.365 1.014 um, coefficients 3.13578304 -0.0105336277 2 0.0366011503 -2 0.000398524293 -4 7.65525829e-05 -6 3.24358098e-06 -8
wavelength (um)	k
0.350	1.1697E-05
0.360	4.4709E-06
0.370	1.9085E-06
0.380	8.9016E-07
0.390	5.0803E-07
0.400	3.3537E-07
0.420	1.9615E-07
0.440	1.4293E-07
0.460	1.0773E-07
0.480	8.8880E-08
0.500	6.8222E-08
0.550	4.3988E-08
0.600	3.8351E-08
0.650	3.1129E-08
0.700	2.7922E-08
0.800	1.9127E-08
0.850	1.3542E-08
0.900	1.4338E-08
0.950	1.5135E-08
1.000	1.5931E-08
1.060	1.6887E-08
1.200	1.9118E-08
1.400	2.2304E-08
1.600	5.1032E-08
1.800	2.1649E-07
2.000	5.0119E-07
2.200	1.4028E-06
2.400	4.0245E-06
