Material: glass / hikari / E-LAK06
Optical constants. NIKON Zemax catalog 2017-11 (obtained from http://www.nikon.com)See also HIKARI glass data sheets
Specs: {"n_is_absolute": false, "λ_is_vacuum": false, "temperature": "23.0 °C", "n_d": 1.6779, "V_d": 50.708792, "glass_status": "preferred", "density": "3.86 g/cm3", "coefficient_of_thermal_expansion_1": "9.5e-06 K-1", "ΔP_gF": -0.0027}
Dispersion formula 3, range 0.4 0.7 um, coefficients 2.77078533 -0.0176502071 2 0.011803041 -2 0.0027975002 -4 -0.000346617455 -6 2.01612172e-05 -8
wavelength (um)	k
0.400	-0.0000E+00
0.700	-0.0000E+00
