Material: glass / hikari / E-PKH1
Optical constants. NIKON Zemax catalog 2017-11 (obtained from http://www.nikon.com)See also HIKARI glass data sheets
Specs: {"n_is_absolute": false, "λ_is_vacuum": false, "temperature": "23.0 °C", "n_d": 1.518601, "V_d": 69.973177, "glass_code": 519700, "glass_status": "preferred", "density": "2.6 g/cm3", "coefficient_of_thermal_expansion_1": "7.8e-06 K-1", "ΔP_gF": 0.0049}
Dispersion formula 3, range 0.4 0.7 um, coefficients 2.27969929 -0.00967939699 2 0.00983301659 -2 0.000165890669 -4 -3.86343967e-06 -6 1.39369901e-07 -8
wavelength (um)	k
0.280	8.7166E-06
0.300	3.5086E-06
0.320	1.1365E-06
0.340	3.4587E-07
0.360	1.7726E-07
0.380	8.2769E-08
0.400	3.1991E-08
0.420	2.6846E-08
0.440	3.1655E-08
0.460	3.6790E-08
0.480	2.6832E-08
0.500	1.9944E-08
0.550	4.3790E-09
0.600	4.7770E-09
0.650	5.1751E-09
0.700	5.5732E-09
