Material: glass / hikari / E-SF10
Optical constants. NIKON Zemax catalog 2017-11 (obtained from http://www.nikon.com)See also HIKARI glass data sheets
Specs: {"n_is_absolute": false, "λ_is_vacuum": false, "temperature": "23.0 °C", "n_d": 1.72825, "V_d": 28.459666, "glass_code": 728285, "glass_status": "preferred", "density": "3.07 g/cm3", "coefficient_of_thermal_expansion_1": "9.6e-06 K-1", "ΔP_gF": 0.011}
Dispersion formula 3, range 0.4 0.7 um, coefficients 2.87968193 -0.0123038115 2 0.033443025 -2 0.00183471163 -4 -8.12508073e-05 -6 1.59440837e-05 -8
wavelength (um)	k
0.370	6.4990E-06
0.380	2.4826E-06
0.390	1.1069E-06
0.400	5.5498E-07
0.420	1.9970E-07
0.440	8.5059E-08
0.460	4.0489E-08
0.480	3.8216E-09
0.500	3.9809E-09
0.550	4.3790E-09
0.600	4.7770E-09
0.650	5.1751E-09
0.700	5.5732E-09
0.800	6.3694E-09
0.900	7.1656E-09
1.000	7.9617E-09
1.200	9.5541E-09
1.400	1.1146E-08
1.600	1.2739E-08
1.800	1.4396E-07
2.000	2.7289E-07
2.200	9.9038E-07
2.400	1.8222E-06
