Material: glass / hikari / E-SK16
Optical constants. NIKON Zemax catalog 2017-11 (obtained from http://www.nikon.com)See also HIKARI glass data sheets
Specs: {"n_is_absolute": false, "λ_is_vacuum": false, "temperature": "23.0 °C", "n_d": 1.620411, "V_d": 60.291663, "glass_code": 620603, "glass_status": "preferred", "density": "3.6 g/cm3", "coefficient_of_thermal_expansion_1": "7.6e-06 K-1", "ΔP_gF": -0.0008}
Dispersion formula 3, range 0.4 0.7 um, coefficients 2.58572188 -0.0114561541 2 0.0140913669 -2 0.000439966701 -4 -2.67679001e-05 -6 1.51331053e-06 -8
wavelength (um)	k
0.290	9.0280E-06
0.300	5.4970E-06
0.310	3.3231E-06
0.320	1.9226E-06
0.330	1.0912E-06
0.340	6.3778E-07
0.350	3.5604E-07
0.360	1.7726E-07
0.370	8.6649E-08
0.380	2.7339E-08
0.390	3.1051E-09
0.400	3.1847E-09
0.420	3.3439E-09
0.440	3.5032E-09
0.460	3.6624E-09
0.480	3.8216E-09
0.500	3.9809E-09
0.550	4.3790E-09
0.600	4.7770E-09
0.650	5.1751E-09
0.700	5.5732E-09
0.800	6.3694E-09
0.900	7.1656E-09
1.000	7.9617E-09
1.200	9.5541E-09
1.400	1.1146E-08
1.600	1.2739E-08
1.800	1.4331E-08
2.000	3.0530E-07
2.200	1.4598E-06
2.400	4.2617E-06
