Material: glass / hikari / E-SSK1
Optical constants. NIKON Zemax catalog 2017-11 (obtained from http://www.nikon.com)See also HIKARI glass data sheets
Specs: {"n_is_absolute": false, "λ_is_vacuum": false, "temperature": "23.0 °C", "n_d": 1.6172, "V_d": 54.0099, "glass_status": "preferred", "density": "3.32 g/cm3", "coefficient_of_thermal_expansion_1": "6.9e-06 K-1", "ΔP_gF": -0.0016}
Dispersion formula 3, range 0.4 0.7 um, coefficients 2.56935287 -0.0103280973 2 0.0161803173 -2 0.000314456596 -4 -8.91235286e-08 -6 6.08967029e-07 -8
wavelength (um)	k
0.400	-0.0000E+00
0.700	-0.0000E+00
