Material: glass / hikari / LAK09
Optical constants. NIKON Zemax catalog 2017-11 (obtained from http://www.nikon.com)See also HIKARI glass data sheets
Specs: {"n_is_absolute": false, "λ_is_vacuum": false, "temperature": "20.0 °C", "n_d": 1.734, "V_d": 51.483018, "glass_code": 734515, "glass_status": "preferred", "density": "4.03 g/cm3", "coefficient_of_thermal_expansion_1": "6.8e-06 K-1", "ΔP_gF": -0.0101}
Dispersion formula 3, range 0.4 0.7 um, coefficients 2.953102 -0.01967247 2 0.01742579 -2 0.001528665 -4 -0.0001370287 -6 6.723533e-06 -8
wavelength (um)	k
0.290	-0.0000E+00
0.300	-0.0000E+00
0.310	-0.0000E+00
0.320	-0.0000E+00
0.330	-0.0000E+00
0.340	-0.0000E+00
0.350	-0.0000E+00
0.360	-0.0000E+00
0.370	-0.0000E+00
0.380	-0.0000E+00
0.390	-0.0000E+00
0.400	-0.0000E+00
0.420	-0.0000E+00
0.440	-0.0000E+00
0.460	-0.0000E+00
0.480	-0.0000E+00
0.500	-0.0000E+00
0.550	-0.0000E+00
0.600	-0.0000E+00
0.650	-0.0000E+00
0.700	-1.3842E-05
