Material: glass / cdgm / H-ZF4A
Optical constants. CDGM Zemax catalog 2017-09 (obtained from http://www.cdgmgd.com)
Specs: {"n_is_absolute": false, "λ_is_vacuum": false, "temperature": "20.0 °C", "coefficients_of_thermal_dispersion": "-6.08e-06 2.36e-08 2.8e-11 1.2e-06 -6.1e-10 0.244", "n_d": 1.728254, "V_d": 28.310916, "glass_code": 728283, "glass_status": "standard", "density": "3.05 g/cm3", "coefficient_of_thermal_expansion_1": "9.3e-06 K-1", "coefficient_of_thermal_expansion_2": "1.12e-05 K-1", "ΔP_gF": 0.0103, "climatic_resistance": 1.0}
Dispersion formula 3, range 0.365 1.014 um, coefficients 2.87667041 -0.0108521785 2 0.0348454207 -2 0.00163571517 -4 -8.15344316e-05 -6 1.79346084e-05 -8
wavelength (um)	k
0.370	4.5534E-06
0.380	1.6787E-06
0.390	7.7509E-07
0.400	4.3233E-07
0.420	1.9970E-07
0.440	1.2475E-07
0.460	8.8925E-08
0.480	6.9381E-08
0.500	6.0135E-08
0.550	3.0745E-08
0.600	3.3540E-08
0.650	2.5928E-08
0.700	2.2326E-08
0.800	1.9127E-08
0.850	1.3542E-08
0.900	1.4338E-08
0.950	1.5135E-08
1.000	1.5931E-08
1.060	1.6887E-08
1.200	1.9118E-08
1.400	5.5844E-08
1.600	1.0227E-07
1.800	3.6265E-07
2.000	6.8289E-07
2.200	1.5743E-06
2.400	2.6159E-06
