Material: glass / hikari / E-BAF4
Optical constants. NIKON Zemax catalog 2017-11 (obtained from http://www.nikon.com)See also HIKARI glass data sheets
Specs: {"n_is_absolute": false, "λ_is_vacuum": false, "temperature": "23.0 °C", "n_d": 1.60562, "V_d": 43.767613, "glass_status": "preferred", "density": "2.89 g/cm3", "coefficient_of_thermal_expansion_1": "7.5e-06 K-1", "ΔP_gF": 0.0009}
Dispersion formula 3, range 0.4 0.7 um, coefficients 2.50495857 0.00332474118 2 0.0283142796 -2 -0.00204413784 -4 0.000334309924 -6 -1.53485779e-05 -8
wavelength (um)	k
0.350	1.0896E-05
0.360	3.1761E-06
0.370	1.0502E-06
0.380	3.8656E-07
0.390	1.3965E-07
0.400	3.5208E-08
0.420	3.3439E-09
0.440	3.5032E-09
0.460	3.6624E-09
0.480	3.8216E-09
0.500	3.9809E-09
0.550	4.3790E-09
0.600	4.7770E-09
0.650	5.1751E-09
0.700	5.5732E-09
0.800	6.3694E-09
0.900	7.1656E-09
1.000	7.9617E-09
1.200	9.5541E-09
1.400	1.1146E-08
1.600	1.2739E-08
1.800	2.8677E-08
2.000	1.5996E-07
2.200	1.3649E-06
2.400	2.0122E-06
