Material: glass / hikari / LASF010
Optical constants. NIKON Zemax catalog 2017-11 (obtained from http://www.nikon.com)See also HIKARI glass data sheets
Specs: {"n_is_absolute": false, "λ_is_vacuum": false, "temperature": "20.0 °C", "n_d": 1.834, "V_d": 37.338765, "glass_code": 834373, "glass_status": "preferred", "density": "4.32 g/cm3", "coefficient_of_thermal_expansion_1": "7.9e-06 K-1", "ΔP_gF": -0.003}
Dispersion formula 3, range 0.4 0.7 um, coefficients 3.162451 0.04629811 2 0.09621568 -2 -0.01807107 -4 0.002856517 -6 -0.0001616506 -8
wavelength (um)	k
0.350	1.2826E-05
0.360	4.9125E-06
0.370	2.1004E-06
0.380	1.0357E-06
0.390	6.1590E-07
0.400	4.0691E-07
0.420	2.0680E-07
0.440	1.4293E-07
0.460	7.3953E-08
0.480	3.8389E-08
0.500	3.9989E-08
0.550	4.3790E-09
0.600	4.7770E-09
0.650	5.1751E-09
0.700	-0.0000E+00
